*  Generated for: HSPICE
*  Generated on: Apr 27 15:41:20 2014
*  Design library name: phase2
*  Design cell name: control_mem_v1_tb
*  Design view name: schematic
.global vdd!
.temp 25.0
.option ARTIST=2 PSF=2 WARN_SEP=1
.option LIS_NEW=1 
.lib '/home/ff/ee241/synopsys-32nm/hspice/saed32nm.lib' TT
*  Library name: saed32nm_hvt
*  Cell name: INVX0_HVT
*  View name: schematic
.subckt invx0_hvt a vdd vss y
    xmp y a vdd vdd p105_hvt m=1 w=520e-9 l=30e-9 ad=10.5e-15 as=10.5e-15 pd=310e-9 ps=310e-9
    xmn y a vss vss n105_hvt m=1 w=270e-9 l=30e-9 ad=10.5e-15 as=10.5e-15 pd=310e-9 ps=310e-9
.ends 
*  End of subcircuit definition.
*  Library name: saed32nm_hvt
*  Cell name: XNOR2X1_HVT
*  View name: schematic
.subckt xnor2x1_hvt a1 a2 vdd vss y
    xmn7 y y1 vss vss n105_hvt m=1 w=410e-9 l=30e-9 ad=10.5e-15 as=10.5e-15 pd=310e-9 ps=310e-9
    xmn4 sa2 a2b vss vss n105_hvt m=1 w=220e-9 l=30e-9 ad=10.5e-15 as=10.5e-15 pd=310e-9 ps=310e-9
    xmn3 y1 a1b sa2 vss n105_hvt m=1 w=220e-9 l=30e-9 ad=10.5e-15 as=10.5e-15 pd=310e-9 ps=310e-9
    xmn5 y1 a1 sa4 vss n105_hvt m=1 w=220e-9 l=30e-9 ad=10.5e-15 as=10.5e-15 pd=310e-9 ps=310e-9
    xmn6 sa4 a2 vss vss n105_hvt m=1 w=220e-9 l=30e-9 ad=10.5e-15 as=10.5e-15 pd=310e-9 ps=310e-9
    xmn2 a2b a2 vss vss n105_hvt m=1 w=200e-9 l=30e-9 ad=10.5e-15 as=10.5e-15 pd=310e-9 ps=310e-9
    xmn1 a1b a1 vss vss n105_hvt m=1 w=220e-9 l=30e-9 ad=10.5e-15 as=10.5e-15 pd=310e-9 ps=310e-9
    xmp6 y1 a1 sa3 vdd p105_hvt m=1 w=470e-9 l=30e-9 ad=10.5e-15 as=10.5e-15 pd=310e-9 ps=310e-9
    xmp5 sa3 a2b vdd vdd p105_hvt m=1 w=470e-9 l=30e-9 ad=10.5e-15 as=10.5e-15 pd=310e-9 ps=310e-9
    xmp7 y y1 vdd vdd p105_hvt m=1 w=800e-9 l=30e-9 ad=10.5e-15 as=10.5e-15 pd=310e-9 ps=310e-9
    xmp4 y1 a1b sa1 vdd p105_hvt m=1 w=400e-9 l=30e-9 ad=10.5e-15 as=10.5e-15 pd=310e-9 ps=310e-9
    xmp3 sa1 a2 vdd vdd p105_hvt m=1 w=400e-9 l=30e-9 ad=10.5e-15 as=10.5e-15 pd=310e-9 ps=310e-9
    xmp2 a2b a2 vdd vdd p105_hvt m=1 w=440e-9 l=30e-9 ad=10.5e-15 as=10.5e-15 pd=310e-9 ps=310e-9
    xmp1 a1b a1 vdd vdd p105_hvt m=1 w=440e-9 l=30e-9 ad=10.5e-15 as=10.5e-15 pd=310e-9 ps=310e-9
.ends 
*  End of subcircuit definition.
*  Library name: saed32nm_hvt
*  Cell name: AND2X1_HVT
*  View name: schematic
.subckt and2x1_hvt a1 a2 vdd vss y
    xmn1 y1 a1 sa1 vss n105_hvt m=1 w=420e-9 l=30e-9 ad=10.5e-15 as=10.5e-15 pd=310e-9 ps=310e-9
    xmn2 sa1 a2 vss vss n105_hvt m=1 w=420e-9 l=30e-9 ad=10.5e-15 as=10.5e-15 pd=310e-9 ps=310e-9
    xmn3 y y1 vss vss n105_hvt m=1 w=420e-9 l=30e-9 ad=10.5e-15 as=10.5e-15 pd=310e-9 ps=310e-9
    xmp2 y1 a2 vdd vdd p105_hvt m=1 w=390e-9 l=30e-9 ad=10.5e-15 as=10.5e-15 pd=310e-9 ps=310e-9
    xmp1 y1 a1 vdd vdd p105_hvt m=1 w=390e-9 l=30e-9 ad=10.5e-15 as=10.5e-15 pd=310e-9 ps=310e-9
    xmp3 y y1 vdd vdd p105_hvt m=1 w=800e-9 l=30e-9 ad=10.5e-15 as=10.5e-15 pd=310e-9 ps=310e-9
.ends 
*  End of subcircuit definition.
*  Library name: saed32nm_hvt
*  Cell name: NOR2X0_HVT
*  View name: schematic
.subckt nor2x0_hvt a1 a2 vdd vss y
    xmn2 sa1 a2 vss vss n105_hvt m=1 w=210e-9 l=30e-9 ad=10.5e-15 as=10.5e-15 pd=310e-9 ps=310e-9
    xmn1 sa1 a1 vss vss n105_hvt m=1 w=210e-9 l=30e-9 ad=10.5e-15 as=10.5e-15 pd=310e-9 ps=310e-9
    xmn4 y sa2 vss vss n105_hvt m=1 w=420e-9 l=30e-9 ad=10.5e-15 as=10.5e-15 pd=310e-9 ps=310e-9
    xmn3 sa2 sa1 vss vss n105_hvt m=1 w=210e-9 l=30e-9 ad=10.5e-15 as=10.5e-15 pd=310e-9 ps=310e-9
    xmp2 sa1 a2 net84 vdd p105_hvt m=1 w=800e-9 l=30e-9 ad=10.5e-15 as=10.5e-15 pd=310e-9 ps=310e-9
    xmp1 net84 a1 vdd vdd p105_hvt m=1 w=800e-9 l=30e-9 ad=10.5e-15 as=10.5e-15 pd=310e-9 ps=310e-9
    xmp4 y sa2 vdd vdd p105_hvt m=1 w=800e-9 l=30e-9 ad=10.5e-15 as=10.5e-15 pd=310e-9 ps=310e-9
    xmp3 sa2 sa1 vdd vdd p105_hvt m=1 w=400e-9 l=30e-9 ad=10.5e-15 as=10.5e-15 pd=310e-9 ps=310e-9
.ends 
*  End of subcircuit definition.
*  Library name: saed32nm_hvt
*  Cell name: NOR2X2_HVT
*  View name: schematic
.subckt nor2x2_hvt a1 a2 vdd vss y
    xmn2 sa1 a2 vss vss n105_hvt m=1 w=200e-9 l=30e-9 ad=10.5e-15 as=10.5e-15 pd=310e-9 ps=310e-9
    xmn1 sa1 a1 vss vss n105_hvt m=1 w=200e-9 l=30e-9 ad=10.5e-15 as=10.5e-15 pd=310e-9 ps=310e-9
    xmn4 y sa2 vss vss n105_hvt m=2 w=420e-9 l=30e-9 ad=10.5e-15 as=10.5e-15 pd=310e-9 ps=310e-9
    xmn3 sa2 sa1 vss vss n105_hvt m=1 w=210e-9 l=30e-9 ad=10.5e-15 as=10.5e-15 pd=310e-9 ps=310e-9
    xmp2 sa1 a2 net84 vdd p105_hvt m=1 w=800e-9 l=30e-9 ad=10.5e-15 as=10.5e-15 pd=310e-9 ps=310e-9
    xmp1 net84 a1 vdd vdd p105_hvt m=1 w=800e-9 l=30e-9 ad=10.5e-15 as=10.5e-15 pd=310e-9 ps=310e-9
    xmp4 y sa2 vdd vdd p105_hvt m=2 w=800e-9 l=30e-9 ad=10.5e-15 as=10.5e-15 pd=310e-9 ps=310e-9
    xmp3 sa2 sa1 vdd vdd p105_hvt m=1 w=400e-9 l=30e-9 ad=10.5e-15 as=10.5e-15 pd=310e-9 ps=310e-9
.ends 
*  End of subcircuit definition.
*  Library name: saed32nm_hvt
*  Cell name: AND3X1_HVT
*  View name: schematic
.subckt and3x1_hvt a1 a2 a3 vdd vss y
    xmn3 sa2 a3 vss vss n105_hvt m=1 w=420e-9 l=30e-9 ad=10.5e-15 as=10.5e-15 pd=310e-9 ps=310e-9
    xmn1 y1 a1 sa1 vss n105_hvt m=1 w=420e-9 l=30e-9 ad=10.5e-15 as=10.5e-15 pd=310e-9 ps=310e-9
    xmn2 sa1 a2 sa2 vss n105_hvt m=1 w=420e-9 l=30e-9 ad=10.5e-15 as=10.5e-15 pd=310e-9 ps=310e-9
    xmn4 y y1 vss vss n105_hvt m=1 w=420e-9 l=30e-9 ad=10.5e-15 as=10.5e-15 pd=310e-9 ps=310e-9
    xmp3 y1 a3 vdd vdd p105_hvt m=1 w=260e-9 l=30e-9 ad=10.5e-15 as=10.5e-15 pd=310e-9 ps=310e-9
    xmp2 y1 a2 vdd vdd p105_hvt m=1 w=260e-9 l=30e-9 ad=10.5e-15 as=10.5e-15 pd=310e-9 ps=310e-9
    xmp1 y1 a1 vdd vdd p105_hvt m=1 w=260e-9 l=30e-9 ad=10.5e-15 as=10.5e-15 pd=310e-9 ps=310e-9
    xmp4 y y1 vdd vdd p105_hvt m=1 w=800e-9 l=30e-9 ad=10.5e-15 as=10.5e-15 pd=310e-9 ps=310e-9
.ends 
*  End of subcircuit definition.
*  Library name: saed32nm_hvt
*  Cell name: AND4X1_HVT
*  View name: schematic
.subckt and4x1_hvt a1 a2 a3 a4 vdd vss y
    xmp1 y1 a1 vdd vdd p105_hvt m=1 w=190e-9 l=30e-9 ad=10.5e-15 as=10.5e-15 pd=310e-9 ps=310e-9
    xmp2 y1 a2 vdd vdd p105_hvt m=1 w=190e-9 l=30e-9 ad=10.5e-15 as=10.5e-15 pd=310e-9 ps=310e-9
    xmp3 y1 a3 vdd vdd p105_hvt m=1 w=190e-9 l=30e-9 ad=10.5e-15 as=10.5e-15 pd=310e-9 ps=310e-9
    xmp4 y1 a4 vdd vdd p105_hvt m=1 w=190e-9 l=30e-9 ad=10.5e-15 as=10.5e-15 pd=310e-9 ps=310e-9
    xmp5 y y1 vdd vdd p105_hvt m=1 w=800e-9 l=30e-9 ad=10.5e-15 as=10.5e-15 pd=310e-9 ps=310e-9
    xmn1 y1 a1 sa1 vss n105_hvt m=1 w=420e-9 l=30e-9 ad=10.5e-15 as=10.5e-15 pd=310e-9 ps=310e-9
    xmn2 sa1 a2 sa2 vss n105_hvt m=1 w=420e-9 l=30e-9 ad=10.5e-15 as=10.5e-15 pd=310e-9 ps=310e-9
    xmn4 sa3 a4 vss vss n105_hvt m=1 w=420e-9 l=30e-9 ad=10.5e-15 as=10.5e-15 pd=310e-9 ps=310e-9
    xmn3 sa2 a3 sa3 vss n105_hvt m=1 w=420e-9 l=30e-9 ad=10.5e-15 as=10.5e-15 pd=310e-9 ps=310e-9
    xmn5 y y1 vss vss n105_hvt m=1 w=420e-9 l=30e-9 ad=10.5e-15 as=10.5e-15 pd=310e-9 ps=310e-9
.ends 
*  End of subcircuit definition.
*  Library name: saed32nm_hvt
*  Cell name: NBUFFX2_HVT
*  View name: schematic
.subckt nbuffx2_hvt a vdd vss y
    xmp2 y an vdd vdd p105_hvt m=2 w=800e-9 l=30e-9 ad=10.5e-15 as=10.5e-15 pd=310e-9 ps=310e-9
    xmp1 an a vdd vdd p105_hvt m=1 w=520e-9 l=30e-9 ad=10.5e-15 as=10.5e-15 pd=310e-9 ps=310e-9
    xmn2 y an vss vss n105_hvt m=2 w=420e-9 l=30e-9 ad=10.5e-15 as=10.5e-15 pd=310e-9 ps=310e-9
    xmn1 an a vss vss n105_hvt m=1 w=270e-9 l=30e-9 ad=10.5e-15 as=10.5e-15 pd=310e-9 ps=310e-9
.ends 
*  End of subcircuit definition.
*  Library name: saed32nm_hvt
*  Cell name: OR2X1_HVT
*  View name: schematic
.subckt or2x1_hvt a1 a2 vdd vss y
    xmn2 sa1 a2 vss vss n105_hvt m=1 w=210e-9 l=30e-9 ad=10.5e-15 as=10.5e-15 pd=310e-9 ps=310e-9
    xmn1 sa1 a1 vss vss n105_hvt m=1 w=210e-9 l=30e-9 ad=10.5e-15 as=10.5e-15 pd=310e-9 ps=310e-9
    xmn0 y sa1 vss vss n105_hvt m=1 w=420e-9 l=30e-9 ad=10.5e-15 as=10.5e-15 pd=310e-9 ps=310e-9
    xmp2 sa1 a2 net126 vdd p105_hvt m=1 w=800e-9 l=30e-9 ad=10.5e-15 as=10.5e-15 pd=310e-9 ps=310e-9
    xmp1 net126 a1 vdd vdd p105_hvt m=1 w=800e-9 l=30e-9 ad=10.5e-15 as=10.5e-15 pd=310e-9 ps=310e-9
    xmp0 y sa1 vdd vdd p105_hvt m=1 w=800e-9 l=30e-9 ad=10.5e-15 as=10.5e-15 pd=310e-9 ps=310e-9
.ends 
*  End of subcircuit definition.
*  Library name: saed32nm_hvt
*  Cell name: DFFARX1_HVT
*  View name: schematic
.subckt dffarx1_hvt clk d q qn rstb vdd vss
    xmp01 d1 d vdd vdd p105_hvt m=1 w=450e-9 l=30e-9 ad=10.5e-15 as=10.5e-15 pd=310e-9 ps=310e-9
    xmp10 fb4 clkp vdd vdd p105_hvt m=1 w=300e-9 l=30e-9 ad=10.5e-15 as=10.5e-15 pd=310e-9 ps=310e-9
    xmp11 d4 d5 fb4 vdd p105_hvt m=1 w=300e-9 l=30e-9 ad=10.5e-15 as=10.5e-15 pd=310e-9 ps=310e-9
    xmp14 qn d4 vdd vdd p105_hvt m=1 w=800e-9 l=30e-9 ad=10.5e-15 as=10.5e-15 pd=310e-9 ps=310e-9
    xmp13 q d5 vdd vdd p105_hvt m=1 w=800e-9 l=30e-9 ad=10.5e-15 as=10.5e-15 pd=310e-9 ps=310e-9
    xmpc1 clkn clk vdd vdd p105_hvt m=1 w=740e-9 l=30e-9 ad=10.5e-15 as=10.5e-15 pd=310e-9 ps=310e-9
    xmp1 d1 clkp d2 vdd p105_hvt m=1 w=400e-9 l=30e-9 ad=10.5e-15 as=10.5e-15 pd=310e-9 ps=310e-9
    xmpc2 clkp clkn vdd vdd p105_hvt m=1 w=740e-9 l=30e-9 ad=10.5e-15 as=10.5e-15 pd=310e-9 ps=310e-9
    xmp2 d3 d2 vdd vdd p105_hvt m=1 w=700e-9 l=30e-9 ad=10.5e-15 as=10.5e-15 pd=310e-9 ps=310e-9
    xmp8 vdd d4 d5 vdd p105_hvt m=1 w=520e-9 l=30e-9 ad=10.5e-15 as=10.5e-15 pd=310e-9 ps=310e-9
    xmp9 d5 rstb vdd vdd p105_hvt m=1 w=520e-9 l=30e-9 ad=10.5e-15 as=10.5e-15 pd=310e-9 ps=310e-9
    xmp7 d4 clkn d3 vdd p105_hvt m=1 w=400e-9 l=30e-9 ad=10.5e-15 as=10.5e-15 pd=310e-9 ps=310e-9
    xmp6 d2 d3 fb1 vdd p105_hvt m=1 w=300e-9 l=30e-9 ad=10.5e-15 as=10.5e-15 pd=310e-9 ps=310e-9
    xmp5 d2 rstb fb1 vdd p105_hvt m=1 w=300e-9 l=30e-9 ad=10.5e-15 as=10.5e-15 pd=310e-9 ps=310e-9
    xmp4 fb1 clkn vdd vdd p105_hvt m=1 w=300e-9 l=30e-9 ad=10.5e-15 as=10.5e-15 pd=310e-9 ps=310e-9
    xmn4 fb3 clkp vss vss n105_hvt m=1 w=300e-9 l=30e-9 ad=10.5e-15 as=10.5e-15 pd=310e-9 ps=310e-9
    xmn5 fb2 rstb fb3 vss n105_hvt m=1 w=300e-9 l=30e-9 ad=10.5e-15 as=10.5e-15 pd=310e-9 ps=310e-9
    xmn6 d2 d3 fb2 vss n105_hvt m=1 w=300e-9 l=30e-9 ad=10.5e-15 as=10.5e-15 pd=310e-9 ps=310e-9
    xmn01 d1 d vss vss n105_hvt m=1 w=420e-9 l=30e-9 ad=10.5e-15 as=10.5e-15 pd=310e-9 ps=310e-9
    xmn9 d5 rstb net294 vss n105_hvt m=1 w=350e-9 l=30e-9 ad=10.5e-15 as=10.5e-15 pd=310e-9 ps=310e-9
    xmn8 net294 d4 vss vss n105_hvt m=1 w=350e-9 l=30e-9 ad=10.5e-15 as=10.5e-15 pd=310e-9 ps=310e-9
    xmn14 qn d4 vss vss n105_hvt m=1 w=420e-9 l=30e-9 ad=10.5e-15 as=10.5e-15 pd=310e-9 ps=310e-9
    xmn11 d4 d5 fb5 vss n105_hvt m=1 w=300e-9 l=30e-9 ad=10.5e-15 as=10.5e-15 pd=310e-9 ps=310e-9
    xmn10 fb5 clkn vss vss n105_hvt m=1 w=300e-9 l=30e-9 ad=10.5e-15 as=10.5e-15 pd=310e-9 ps=310e-9
    xmn13 q d5 vss vss n105_hvt m=1 w=420e-9 l=30e-9 ad=10.5e-15 as=10.5e-15 pd=310e-9 ps=310e-9
    xmnc1 clkn clk vss vss n105_hvt m=1 w=400e-9 l=30e-9 ad=10.5e-15 as=10.5e-15 pd=310e-9 ps=310e-9
    xmn1 d1 clkn d2 vss n105_hvt m=1 w=300e-9 l=30e-9 ad=10.5e-15 as=10.5e-15 pd=310e-9 ps=310e-9
    xmnc2 clkp clkn vss vss n105_hvt m=1 w=400e-9 l=30e-9 ad=10.5e-15 as=10.5e-15 pd=310e-9 ps=310e-9
    xmn2 d3 d2 vss vss n105_hvt m=1 w=350e-9 l=30e-9 ad=10.5e-15 as=10.5e-15 pd=310e-9 ps=310e-9
    xmn7 d4 clkp d3 vss n105_hvt m=1 w=300e-9 l=30e-9 ad=10.5e-15 as=10.5e-15 pd=310e-9 ps=310e-9
.ends 
*  End of subcircuit definition.
*  Library name: saed32nm_hvt
*  Cell name: AO21X1_HVT
*  View name: schematic
.subckt ao21x1_hvt a1 a2 a3 vdd vss y
    xmn2 net3 a1 net2 vss n105_hvt m=1 w=260e-9 l=30e-9 ad=10.5e-15 as=10.5e-15 pd=310e-9 ps=310e-9
    xmn1 net2 a2 vss vss n105_hvt m=1 w=260e-9 l=30e-9 ad=10.5e-15 as=10.5e-15 pd=310e-9 ps=310e-9
    xmn3 net3 a3 vss vss n105_hvt m=1 w=200e-9 l=30e-9 ad=10.5e-15 as=10.5e-15 pd=310e-9 ps=310e-9
    xmn4 y net3 vss vss n105_hvt m=1 w=420e-9 l=30e-9 ad=10.5e-15 as=10.5e-15 pd=310e-9 ps=310e-9
    xmp2 net1 a1 vdd vdd p105_hvt m=1 w=550e-9 l=30e-9 ad=10.5e-15 as=10.5e-15 pd=310e-9 ps=310e-9
    xmp1 net1 a2 vdd vdd p105_hvt m=1 w=550e-9 l=30e-9 ad=10.5e-15 as=10.5e-15 pd=310e-9 ps=310e-9
    xmp3 net3 a3 net1 vdd p105_hvt m=1 w=550e-9 l=30e-9 ad=10.5e-15 as=10.5e-15 pd=310e-9 ps=310e-9
    xmp4 y net3 vdd vdd p105_hvt m=1 w=800e-9 l=30e-9 ad=10.5e-15 as=10.5e-15 pd=310e-9 ps=310e-9
.ends 
*  End of subcircuit definition.
*  Library name: saed32nm_hvt
*  Cell name: XOR2X1_HVT
*  View name: schematic
.subckt xor2x1_hvt a1 a2 vdd vss y
    xmn7 y y1 vss vss n105_hvt m=1 w=420e-9 l=30e-9 ad=10.5e-15 as=10.5e-15 pd=310e-9 ps=310e-9
    xmn4 sa2 a2b vss vss n105_hvt m=1 w=230e-9 l=30e-9 ad=10.5e-15 as=10.5e-15 pd=310e-9 ps=310e-9
    xmn3 y1 a1 sa2 vss n105_hvt m=1 w=230e-9 l=30e-9 ad=10.5e-15 as=10.5e-15 pd=310e-9 ps=310e-9
    xmn5 y1 a1b sa4 vss n105_hvt m=1 w=270e-9 l=30e-9 ad=10.5e-15 as=10.5e-15 pd=310e-9 ps=310e-9
    xmn6 sa4 a2 vss vss n105_hvt m=1 w=270e-9 l=30e-9 ad=10.5e-15 as=10.5e-15 pd=310e-9 ps=310e-9
    xmn2 a2b a2 vss vss n105_hvt m=1 w=210e-9 l=30e-9 ad=10.5e-15 as=10.5e-15 pd=310e-9 ps=310e-9
    xmn1 a1b a1 vss vss n105_hvt m=1 w=200e-9 l=30e-9 ad=10.5e-15 as=10.5e-15 pd=310e-9 ps=310e-9
    xmp6 y1 a1b sa3 vdd p105_hvt m=1 w=400e-9 l=30e-9 ad=10.5e-15 as=10.5e-15 pd=310e-9 ps=310e-9
    xmp5 sa3 a2b vdd vdd p105_hvt m=1 w=400e-9 l=30e-9 ad=10.5e-15 as=10.5e-15 pd=310e-9 ps=310e-9
    xmp7 y y1 vdd vdd p105_hvt m=1 w=750e-9 l=30e-9 ad=10.5e-15 as=10.5e-15 pd=310e-9 ps=310e-9
    xmp4 y1 a1 sa1 vdd p105_hvt m=1 w=330e-9 l=30e-9 ad=10.5e-15 as=10.5e-15 pd=310e-9 ps=310e-9
    xmp3 sa1 a2 vdd vdd p105_hvt m=1 w=330e-9 l=30e-9 ad=10.5e-15 as=10.5e-15 pd=310e-9 ps=310e-9
    xmp2 a2b a2 vdd vdd p105_hvt m=1 w=330e-9 l=30e-9 ad=10.5e-15 as=10.5e-15 pd=310e-9 ps=310e-9
    xmp1 a1b a1 vdd vdd p105_hvt m=1 w=360e-9 l=30e-9 ad=10.5e-15 as=10.5e-15 pd=310e-9 ps=310e-9
.ends 
*  End of subcircuit definition.
*  Library name: saed32nm_hvt
*  Cell name: FADDX1_HVT
*  View name: schematic
.subckt faddx1_hvt a b ci co s vdd vss
    xmp10 net598 a vdd vdd p105_hvt m=1 w=620e-9 l=30e-9 ad=10.5e-15 as=10.5e-15 pd=310e-9 ps=310e-9
    xmp11 net600 b net598 vdd p105_hvt m=1 w=620e-9 l=30e-9 ad=10.5e-15 as=10.5e-15 pd=310e-9 ps=310e-9
    xmp12 net607 ci net600 vdd p105_hvt m=1 w=620e-9 l=30e-9 ad=10.5e-15 as=10.5e-15 pd=310e-9 ps=310e-9
    xmp13 s net607 vdd vdd p105_hvt m=1 w=800e-9 l=30e-9 ad=10.5e-15 as=10.5e-15 pd=310e-9 ps=310e-9
    xmp14 co net609 vdd vdd p105_hvt m=1 w=800e-9 l=30e-9 ad=10.5e-15 as=10.5e-15 pd=310e-9 ps=310e-9
    xmp5 net609 b net576 vdd p105_hvt m=1 w=620e-9 l=30e-9 ad=10.5e-15 as=10.5e-15 pd=310e-9 ps=310e-9
    xmp4 net576 a vdd vdd p105_hvt m=1 w=620e-9 l=30e-9 ad=10.5e-15 as=10.5e-15 pd=310e-9 ps=310e-9
    xmp9 net607 net609 net589 vdd p105_hvt m=1 w=620e-9 l=30e-9 ad=10.5e-15 as=10.5e-15 pd=310e-9 ps=310e-9
    xmp6 net589 ci vdd vdd p105_hvt m=1 w=620e-9 l=30e-9 ad=10.5e-15 as=10.5e-15 pd=310e-9 ps=310e-9
    xmp3 net609 ci net572 vdd p105_hvt m=1 w=620e-9 l=30e-9 ad=10.5e-15 as=10.5e-15 pd=310e-9 ps=310e-9
    xmp7 net589 a vdd vdd p105_hvt m=1 w=620e-9 l=30e-9 ad=10.5e-15 as=10.5e-15 pd=310e-9 ps=310e-9
    xmp8 net589 b vdd vdd p105_hvt m=1 w=620e-9 l=30e-9 ad=10.5e-15 as=10.5e-15 pd=310e-9 ps=310e-9
    xmp1 net572 a vdd vdd p105_hvt m=1 w=620e-9 l=30e-9 ad=10.5e-15 as=10.5e-15 pd=310e-9 ps=310e-9
    xmp2 net572 b vdd vdd p105_hvt m=1 w=620e-9 l=30e-9 ad=10.5e-15 as=10.5e-15 pd=310e-9 ps=310e-9
    xmn11 net604 b net605 vss n105_hvt m=1 w=280e-9 l=30e-9 ad=10.5e-15 as=10.5e-15 pd=310e-9 ps=310e-9
    xmn10 net607 ci net604 vss n105_hvt m=1 w=280e-9 l=30e-9 ad=10.5e-15 as=10.5e-15 pd=310e-9 ps=310e-9
    xmn12 net605 a vss vss n105_hvt m=1 w=280e-9 l=30e-9 ad=10.5e-15 as=10.5e-15 pd=310e-9 ps=310e-9
    xmn5 net579 a vss vss n105_hvt m=1 w=280e-9 l=30e-9 ad=10.5e-15 as=10.5e-15 pd=310e-9 ps=310e-9
    xmn4 net609 b net579 vss n105_hvt m=1 w=280e-9 l=30e-9 ad=10.5e-15 as=10.5e-15 pd=310e-9 ps=310e-9
    xmn13 s net607 vss vss n105_hvt m=1 w=420e-9 l=30e-9 ad=10.5e-15 as=10.5e-15 pd=310e-9 ps=310e-9
    xmn14 co net609 vss vss n105_hvt m=1 w=420e-9 l=30e-9 ad=10.5e-15 as=10.5e-15 pd=310e-9 ps=310e-9
    xmn6 net595 ci vss vss n105_hvt m=1 w=280e-9 l=30e-9 ad=10.5e-15 as=10.5e-15 pd=310e-9 ps=310e-9
    xmn7 net595 a vss vss n105_hvt m=1 w=280e-9 l=30e-9 ad=10.5e-15 as=10.5e-15 pd=310e-9 ps=310e-9
    xmn8 net595 b vss vss n105_hvt m=1 w=280e-9 l=30e-9 ad=10.5e-15 as=10.5e-15 pd=310e-9 ps=310e-9
    xmn9 net607 net609 net595 vss n105_hvt m=1 w=280e-9 l=30e-9 ad=10.5e-15 as=10.5e-15 pd=310e-9 ps=310e-9
    xmn3 net573 b vss vss n105_hvt m=1 w=280e-9 l=30e-9 ad=10.5e-15 as=10.5e-15 pd=310e-9 ps=310e-9
    xmn1 net573 a vss vss n105_hvt m=1 w=280e-9 l=30e-9 ad=10.5e-15 as=10.5e-15 pd=310e-9 ps=310e-9
    xmn2 net609 ci net573 vss n105_hvt m=1 w=280e-9 l=30e-9 ad=10.5e-15 as=10.5e-15 pd=310e-9 ps=310e-9
.ends 
*  End of subcircuit definition.
*  Library name: saed32nm_hvt
*  Cell name: NAND2X0_HVT
*  View name: schematic
.subckt nand2x0_hvt a1 a2 vdd vss y
    xmp2 y a2 vdd vdd p105_hvt m=1 w=300e-9 l=30e-9 ad=10.5e-15 as=10.5e-15 pd=310e-9 ps=310e-9
    xmp1 y a1 vdd vdd p105_hvt m=1 w=300e-9 l=30e-9 ad=10.5e-15 as=10.5e-15 pd=310e-9 ps=310e-9
    xmn1 y a1 sa1 vss n105_hvt m=1 w=320e-9 l=30e-9 ad=10.5e-15 as=10.5e-15 pd=310e-9 ps=310e-9
    xmn2 sa1 a2 vss vss n105_hvt m=1 w=320e-9 l=30e-9 ad=10.5e-15 as=10.5e-15 pd=310e-9 ps=310e-9
.ends 
*  End of subcircuit definition.
*  Library name: saed32nm_hvt
*  Cell name: AO22X1_HVT
*  View name: schematic
.subckt ao22x1_hvt a1 a2 a3 a4 vdd vss y
    xmn4 net3 a3 net4 vss n105_hvt m=1 w=270e-9 l=30e-9 ad=10.5e-15 as=10.5e-15 pd=310e-9 ps=310e-9
    xmn3 net4 a4 vss vss n105_hvt m=1 w=270e-9 l=30e-9 ad=10.5e-15 as=10.5e-15 pd=310e-9 ps=310e-9
    xmn2 net3 a1 net2 vss n105_hvt m=1 w=270e-9 l=30e-9 ad=10.5e-15 as=10.5e-15 pd=310e-9 ps=310e-9
    xmn1 net2 a2 vss vss n105_hvt m=1 w=270e-9 l=30e-9 ad=10.5e-15 as=10.5e-15 pd=310e-9 ps=310e-9
    xmn5 y net3 vss vss n105_hvt m=1 w=420e-9 l=30e-9 ad=10.5e-15 as=10.5e-15 pd=310e-9 ps=310e-9
    xmp4 net3 a3 net1 vdd p105_hvt m=1 w=510e-9 l=30e-9 ad=10.5e-15 as=10.5e-15 pd=310e-9 ps=310e-9
    xmp3 net3 a4 net1 vdd p105_hvt m=1 w=510e-9 l=30e-9 ad=10.5e-15 as=10.5e-15 pd=310e-9 ps=310e-9
    xmp1 net1 a2 vdd vdd p105_hvt m=1 w=510e-9 l=30e-9 ad=10.5e-15 as=10.5e-15 pd=310e-9 ps=310e-9
    xmp2 net1 a1 vdd vdd p105_hvt m=1 w=510e-9 l=30e-9 ad=10.5e-15 as=10.5e-15 pd=310e-9 ps=310e-9
    xmp5 y net3 vdd vdd p105_hvt m=1 w=800e-9 l=30e-9 ad=10.5e-15 as=10.5e-15 pd=310e-9 ps=310e-9
.ends 
*  End of subcircuit definition.
*  Library name: saed32nm_hvt
*  Cell name: AOI22X1_HVT
*  View name: schematic
.subckt aoi22x1_hvt a1 a2 a3 a4 vdd vss y
    xmn4 net3 a3 net6 vss n105_hvt m=1 w=250e-9 l=30e-9 ad=10.5e-15 as=10.5e-15 pd=310e-9 ps=310e-9
    xmn3 net6 a4 vss vss n105_hvt m=1 w=250e-9 l=30e-9 ad=10.5e-15 as=10.5e-15 pd=310e-9 ps=310e-9
    xmn2 net3 a1 net2 vss n105_hvt m=1 w=250e-9 l=30e-9 ad=10.5e-15 as=10.5e-15 pd=310e-9 ps=310e-9
    xmn1 net2 a2 vss vss n105_hvt m=1 w=250e-9 l=30e-9 ad=10.5e-15 as=10.5e-15 pd=310e-9 ps=310e-9
    xmn6 y net4 vss vss n105_hvt m=1 w=420e-9 l=30e-9 ad=10.5e-15 as=10.5e-15 pd=310e-9 ps=310e-9
    xmn5 net4 net3 vss vss n105_hvt m=1 w=210e-9 l=30e-9 ad=10.5e-15 as=10.5e-15 pd=310e-9 ps=310e-9
    xmp4 net3 a3 net1 vdd p105_hvt m=1 w=530e-9 l=30e-9 ad=10.5e-15 as=10.5e-15 pd=310e-9 ps=310e-9
    xmp3 net3 a4 net1 vdd p105_hvt m=1 w=530e-9 l=30e-9 ad=10.5e-15 as=10.5e-15 pd=310e-9 ps=310e-9
    xmp1 net1 a2 vdd vdd p105_hvt m=1 w=530e-9 l=30e-9 ad=10.5e-15 as=10.5e-15 pd=310e-9 ps=310e-9
    xmp2 net1 a1 vdd vdd p105_hvt m=1 w=530e-9 l=30e-9 ad=10.5e-15 as=10.5e-15 pd=310e-9 ps=310e-9
    xmp6 y net4 vdd vdd p105_hvt m=1 w=800e-9 l=30e-9 ad=10.5e-15 as=10.5e-15 pd=310e-9 ps=310e-9
    xmp5 net4 net3 vdd vdd p105_hvt m=1 w=530e-9 l=30e-9 ad=10.5e-15 as=10.5e-15 pd=310e-9 ps=310e-9
.ends 
*  End of subcircuit definition.
*  Library name: saed32nm_hvt
*  Cell name: DELLN1X2_HVT
*  View name: schematic
.subckt delln1x2_hvt a vdd vss y
    xmn2 sa2 sa1 net382 vss n105_hvt m=1 w=170e-9 l=30e-9 ad=10.5e-15 as=10.5e-15 pd=310e-9 ps=310e-9
    xmn3 net382 vdd net384 vss n105_hvt m=1 w=170e-9 l=30e-9 ad=10.5e-15 as=10.5e-15 pd=310e-9 ps=310e-9
    xmn4 net384 vdd vss vss n105_hvt m=1 w=170e-9 l=30e-9 ad=10.5e-15 as=10.5e-15 pd=310e-9 ps=310e-9
    xmn6 sa4 sa3 net400 vss n105_hvt m=1 w=240e-9 l=30e-9 ad=10.5e-15 as=10.5e-15 pd=310e-9 ps=310e-9
    xmn7 net400 vdd net398 vss n105_hvt m=1 w=240e-9 l=30e-9 ad=10.5e-15 as=10.5e-15 pd=310e-9 ps=310e-9
    xmn8 net398 vdd vss vss n105_hvt m=1 w=240e-9 l=30e-9 ad=10.5e-15 as=10.5e-15 pd=310e-9 ps=310e-9
    xmn1 sa1 a vss vss n105_hvt m=1 w=120e-9 l=30e-9 ad=10.5e-15 as=10.5e-15 pd=310e-9 ps=310e-9
    xmn10 y sa5 vss vss n105_hvt m=2 w=420e-9 l=30e-9 ad=10.5e-15 as=10.5e-15 pd=310e-9 ps=310e-9
    xmn5 sa3 sa2 vss vss n105_hvt m=1 w=110e-9 l=30e-9 ad=10.5e-15 as=10.5e-15 pd=310e-9 ps=310e-9
    xmn9 sa5 sa4 vss vss n105_hvt m=1 w=270e-9 l=30e-9 ad=10.5e-15 as=10.5e-15 pd=310e-9 ps=310e-9
    xmp3 net377 vss net375 vdd p105_hvt m=1 w=320e-9 l=30e-9 ad=10.5e-15 as=10.5e-15 pd=310e-9 ps=310e-9
    xmp2 sa2 sa1 net377 vdd p105_hvt m=1 w=320e-9 l=30e-9 ad=10.5e-15 as=10.5e-15 pd=310e-9 ps=310e-9
    xmp4 net375 vss vdd vdd p105_hvt m=1 w=320e-9 l=30e-9 ad=10.5e-15 as=10.5e-15 pd=310e-9 ps=310e-9
    xmp8 net391 vss vdd vdd p105_hvt m=1 w=460e-9 l=30e-9 ad=10.5e-15 as=10.5e-15 pd=310e-9 ps=310e-9
    xmp7 net393 vss net391 vdd p105_hvt m=1 w=460e-9 l=30e-9 ad=10.5e-15 as=10.5e-15 pd=310e-9 ps=310e-9
    xmp6 sa4 sa3 net393 vdd p105_hvt m=1 w=460e-9 l=30e-9 ad=10.5e-15 as=10.5e-15 pd=310e-9 ps=310e-9
    xmp1 sa1 a vdd vdd p105_hvt m=1 w=230e-9 l=30e-9 ad=10.5e-15 as=10.5e-15 pd=310e-9 ps=310e-9
    xmp10 y sa5 vdd vdd p105_hvt m=2 w=800e-9 l=30e-9 ad=10.5e-15 as=10.5e-15 pd=310e-9 ps=310e-9
    xmp5 sa3 sa2 vdd vdd p105_hvt m=1 w=210e-9 l=30e-9 ad=10.5e-15 as=10.5e-15 pd=310e-9 ps=310e-9
    xmp9 sa5 sa4 vdd vdd p105_hvt m=1 w=520e-9 l=30e-9 ad=10.5e-15 as=10.5e-15 pd=310e-9 ps=310e-9
.ends 
*  End of subcircuit definition.
*  Library name: saed32nm_hvt
*  Cell name: HADDX1_HVT
*  View name: schematic
.subckt haddx1_hvt a0 b0 c1 so vdd vss
    xmn4 net292 b0 net287 vss n105_hvt m=1 w=420e-9 l=30e-9 ad=10.5e-15 as=10.5e-15 pd=310e-9 ps=310e-9
    xmn5 net287 a0 vss vss n105_hvt m=1 w=420e-9 l=30e-9 ad=10.5e-15 as=10.5e-15 pd=310e-9 ps=310e-9
    xmn7 c1 net292 vss vss n105_hvt m=1 w=420e-9 l=30e-9 ad=10.5e-15 as=10.5e-15 pd=310e-9 ps=310e-9
    xmn6 so net295 vss vss n105_hvt m=1 w=420e-9 l=30e-9 ad=10.5e-15 as=10.5e-15 pd=310e-9 ps=310e-9
    xmn3 net289 net292 vss vss n105_hvt m=1 w=420e-9 l=30e-9 ad=10.5e-15 as=10.5e-15 pd=310e-9 ps=310e-9
    xmn1 net295 a0 net289 vss n105_hvt m=1 w=420e-9 l=30e-9 ad=10.5e-15 as=10.5e-15 pd=310e-9 ps=310e-9
    xmn2 net295 b0 net289 vss n105_hvt m=1 w=420e-9 l=30e-9 ad=10.5e-15 as=10.5e-15 pd=310e-9 ps=310e-9
    xmp7 c1 net292 vdd vdd p105_hvt m=1 w=800e-9 l=30e-9 ad=10.5e-15 as=10.5e-15 pd=310e-9 ps=310e-9
    xmp6 so net295 vdd vdd p105_hvt m=1 w=800e-9 l=30e-9 ad=10.5e-15 as=10.5e-15 pd=310e-9 ps=310e-9
    xmp2 net295 b0 net288 vdd p105_hvt m=1 w=450e-9 l=30e-9 ad=10.5e-15 as=10.5e-15 pd=310e-9 ps=310e-9
    xmp1 net288 a0 vdd vdd p105_hvt m=1 w=450e-9 l=30e-9 ad=10.5e-15 as=10.5e-15 pd=310e-9 ps=310e-9
    xmp5 net292 b0 vdd vdd p105_hvt m=1 w=420e-9 l=30e-9 ad=10.5e-15 as=10.5e-15 pd=310e-9 ps=310e-9
    xmp4 net292 a0 vdd vdd p105_hvt m=1 w=420e-9 l=30e-9 ad=10.5e-15 as=10.5e-15 pd=310e-9 ps=310e-9
    xmp3 net295 net292 vdd vdd p105_hvt m=1 w=450e-9 l=30e-9 ad=10.5e-15 as=10.5e-15 pd=310e-9 ps=310e-9
.ends 
*  End of subcircuit definition.
*  Library name: saed32nm_hvt
*  Cell name: CGLPPRX8_HVT
*  View name: schematic
.subckt cglpprx8_hvt clk en gclk se vdd vss
    xmp1 net1 se vdd vdd p105_hvt m=1 w=300e-9 l=30e-9 ad=10.5e-15 as=10.5e-15 pd=310e-9 ps=310e-9
    xmp2 net2 en net1 vdd p105_hvt m=1 w=300e-9 l=30e-9 ad=10.5e-15 as=10.5e-15 pd=310e-9 ps=310e-9
    xmp10 clkn clk vdd vdd p105_hvt m=1 w=740e-9 l=30e-9 ad=10.5e-15 as=10.5e-15 pd=310e-9 ps=310e-9
    xmp6 net3 clkn net4 vdd p105_hvt m=1 w=300e-9 l=30e-9 ad=10.5e-15 as=10.5e-15 pd=310e-9 ps=310e-9
    xmp5 net4 enl vdd vdd p105_hvt m=1 w=300e-9 l=30e-9 ad=10.5e-15 as=10.5e-15 pd=310e-9 ps=310e-9
    xmp9 gclk net6 vdd vdd p105_hvt m=8 w=800e-9 l=30e-9 ad=10.5e-15 as=10.5e-15 pd=310e-9 ps=310e-9
    xmp4 enl net3 vdd vdd p105_hvt m=1 w=400e-9 l=30e-9 ad=10.5e-15 as=10.5e-15 pd=310e-9 ps=310e-9
    xmp11 clkp clkn vdd vdd p105_hvt m=1 w=740e-9 l=30e-9 ad=10.5e-15 as=10.5e-15 pd=310e-9 ps=310e-9
    xmp3 net2 clkp net3 vdd p105_hvt m=1 w=300e-9 l=30e-9 ad=10.5e-15 as=10.5e-15 pd=310e-9 ps=310e-9
    xmp8 net6 clkp vdd vdd p105_hvt m=1 w=300e-9 l=30e-9 ad=10.5e-15 as=10.5e-15 pd=310e-9 ps=310e-9
    xmp7 net6 enl vdd vdd p105_hvt m=1 w=300e-9 l=30e-9 ad=10.5e-15 as=10.5e-15 pd=310e-9 ps=310e-9
    xmn1 net2 se vss vss n105_hvt m=1 w=300e-9 l=30e-9 ad=10.5e-15 as=10.5e-15 pd=310e-9 ps=310e-9
    xmn2 net2 en vss vss n105_hvt m=1 w=300e-9 l=30e-9 ad=10.5e-15 as=10.5e-15 pd=310e-9 ps=310e-9
    xmn5 net3 clkp net5 vss n105_hvt m=1 w=300e-9 l=30e-9 ad=10.5e-15 as=10.5e-15 pd=310e-9 ps=310e-9
    xmn6 net5 enl vss vss n105_hvt m=1 w=300e-9 l=30e-9 ad=10.5e-15 as=10.5e-15 pd=310e-9 ps=310e-9
    xmn10 clkn clk vss vss n105_hvt m=1 w=400e-9 l=30e-9 ad=10.5e-15 as=10.5e-15 pd=310e-9 ps=310e-9
    xmn8 net7 clkp vss vss n105_hvt m=1 w=300e-9 l=30e-9 ad=10.5e-15 as=10.5e-15 pd=310e-9 ps=310e-9
    xmn7 net6 enl net7 vss n105_hvt m=1 w=300e-9 l=30e-9 ad=10.5e-15 as=10.5e-15 pd=310e-9 ps=310e-9
    xmn9 gclk net6 vss vss n105_hvt m=8 w=420e-9 l=30e-9 ad=10.5e-15 as=10.5e-15 pd=310e-9 ps=310e-9
    xmn4 enl net3 vss vss n105_hvt m=1 w=400e-9 l=30e-9 ad=10.5e-15 as=10.5e-15 pd=310e-9 ps=310e-9
    xmn11 clkp clkn vss vss n105_hvt m=1 w=400e-9 l=30e-9 ad=10.5e-15 as=10.5e-15 pd=310e-9 ps=310e-9
    xmn3 net2 clkn net3 vss n105_hvt m=1 w=300e-9 l=30e-9 ad=10.5e-15 as=10.5e-15 pd=310e-9 ps=310e-9
.ends 
*  End of subcircuit definition.
*  Library name: phase2
*  Cell name: SNPS_CLOCK_GATE_HIGH_control_mem_v1
*  View name: schematic
.subckt snps_clock_gate_high_control_mem_v1 clk en enclk te vss vdd!
    xlatch clk en enclk te vdd! vss cglpprx8_hvt
.ends 
*  End of subcircuit definition.
*  Library name: saed32nm_hvt
*  Cell name: OA21X1_HVT
*  View name: schematic
.subckt oa21x1_hvt a1 a2 a3 vdd vss y
    xmp2 net6 a2 net1 vdd p105_hvt m=1 w=550e-9 l=30e-9 ad=10.5e-15 as=10.5e-15 pd=310e-9 ps=310e-9
    xmp1 net1 a1 vdd vdd p105_hvt m=1 w=550e-9 l=30e-9 ad=10.5e-15 as=10.5e-15 pd=310e-9 ps=310e-9
    xmp3 net6 a3 vdd vdd p105_hvt m=1 w=250e-9 l=30e-9 ad=10.5e-15 as=10.5e-15 pd=310e-9 ps=310e-9
    xmp7 y net6 vdd vdd p105_hvt m=1 w=800e-9 l=30e-9 ad=10.5e-15 as=10.5e-15 pd=310e-9 ps=310e-9
    xmn2 net2 a2 vss vss n105_hvt m=1 w=350e-9 l=30e-9 ad=10.5e-15 as=10.5e-15 pd=310e-9 ps=310e-9
    xmn1 net2 a1 vss vss n105_hvt m=1 w=350e-9 l=30e-9 ad=10.5e-15 as=10.5e-15 pd=310e-9 ps=310e-9
    xmn3 net6 a3 net2 vss n105_hvt m=1 w=200e-9 l=30e-9 ad=10.5e-15 as=10.5e-15 pd=310e-9 ps=310e-9
    xmn7 y net6 vss vss n105_hvt m=1 w=420e-9 l=30e-9 ad=10.5e-15 as=10.5e-15 pd=310e-9 ps=310e-9
.ends 
*  End of subcircuit definition.
*  Library name: saed32nm_hvt
*  Cell name: DELLN2X2_HVT
*  View name: schematic
.subckt delln2x2_hvt a vdd vss y
    xmn2 sa2 sa1 net480 vss n105_hvt m=1 w=210e-9 l=30e-9 ad=10.5e-15 as=10.5e-15 pd=310e-9 ps=310e-9
    xmn3 net480 vdd net481 vss n105_hvt m=1 w=210e-9 l=30e-9 ad=10.5e-15 as=10.5e-15 pd=310e-9 ps=310e-9
    xmn4 net481 vdd vss vss n105_hvt m=1 w=210e-9 l=30e-9 ad=10.5e-15 as=10.5e-15 pd=310e-9 ps=310e-9
    xmn6 sa4 sa3 net470 vss n105_hvt m=1 w=170e-9 l=30e-9 ad=10.5e-15 as=10.5e-15 pd=310e-9 ps=310e-9
    xmn7 net470 vdd net471 vss n105_hvt m=1 w=170e-9 l=30e-9 ad=10.5e-15 as=10.5e-15 pd=310e-9 ps=310e-9
    xmn8 net471 vdd vss vss n105_hvt m=1 w=170e-9 l=30e-9 ad=10.5e-15 as=10.5e-15 pd=310e-9 ps=310e-9
    xmn10 sa6 sa5 net462 vss n105_hvt m=1 w=240e-9 l=30e-9 ad=10.5e-15 as=10.5e-15 pd=310e-9 ps=310e-9
    xmn11 net462 vdd net463 vss n105_hvt m=1 w=240e-9 l=30e-9 ad=10.5e-15 as=10.5e-15 pd=310e-9 ps=310e-9
    xmn12 net463 vdd vss vss n105_hvt m=1 w=240e-9 l=30e-9 ad=10.5e-15 as=10.5e-15 pd=310e-9 ps=310e-9
    xmn1 sa1 a vss vss n105_hvt m=1 w=120e-9 l=30e-9 ad=10.5e-15 as=10.5e-15 pd=310e-9 ps=310e-9
    xmn14 y sa7 vss vss n105_hvt m=2 w=420e-9 l=30e-9 ad=10.5e-15 as=10.5e-15 pd=310e-9 ps=310e-9
    xmn5 sa3 sa2 vss vss n105_hvt m=1 w=120e-9 l=30e-9 ad=10.5e-15 as=10.5e-15 pd=310e-9 ps=310e-9
    xmn9 sa5 sa4 vss vss n105_hvt m=1 w=110e-9 l=30e-9 ad=10.5e-15 as=10.5e-15 pd=310e-9 ps=310e-9
    xmn13 sa7 sa6 vss vss n105_hvt m=1 w=270e-9 l=30e-9 ad=10.5e-15 as=10.5e-15 pd=310e-9 ps=310e-9
    xmp3 net483 vss net482 vdd p105_hvt m=1 w=400e-9 l=30e-9 ad=10.5e-15 as=10.5e-15 pd=310e-9 ps=310e-9
    xmp2 sa2 sa1 net483 vdd p105_hvt m=1 w=400e-9 l=30e-9 ad=10.5e-15 as=10.5e-15 pd=310e-9 ps=310e-9
    xmp4 net482 vss vdd vdd p105_hvt m=1 w=400e-9 l=30e-9 ad=10.5e-15 as=10.5e-15 pd=310e-9 ps=310e-9
    xmp8 net466 vss vdd vdd p105_hvt m=1 w=320e-9 l=30e-9 ad=10.5e-15 as=10.5e-15 pd=310e-9 ps=310e-9
    xmp7 net467 vss net466 vdd p105_hvt m=1 w=320e-9 l=30e-9 ad=10.5e-15 as=10.5e-15 pd=310e-9 ps=310e-9
    xmp6 sa4 sa3 net467 vdd p105_hvt m=1 w=320e-9 l=30e-9 ad=10.5e-15 as=10.5e-15 pd=310e-9 ps=310e-9
    xmp12 net458 vss vdd vdd p105_hvt m=1 w=600e-9 l=30e-9 ad=10.5e-15 as=10.5e-15 pd=310e-9 ps=310e-9
    xmp11 net459 vss net458 vdd p105_hvt m=1 w=600e-9 l=30e-9 ad=10.5e-15 as=10.5e-15 pd=310e-9 ps=310e-9
    xmp10 sa6 sa5 net459 vdd p105_hvt m=1 w=600e-9 l=30e-9 ad=10.5e-15 as=10.5e-15 pd=310e-9 ps=310e-9
    xmp1 sa1 a vdd vdd p105_hvt m=1 w=220e-9 l=30e-9 ad=10.5e-15 as=10.5e-15 pd=310e-9 ps=310e-9
    xmp14 y sa7 vdd vdd p105_hvt m=2 w=800e-9 l=30e-9 ad=10.5e-15 as=10.5e-15 pd=310e-9 ps=310e-9
    xmp5 sa3 sa2 vdd vdd p105_hvt m=1 w=230e-9 l=30e-9 ad=10.5e-15 as=10.5e-15 pd=310e-9 ps=310e-9