*  Generated for: HSPICE
*  Generated on: Apr 27 16:19:21 2014
*  Design library name: phase2_v
*  Design cell name: MAIN_v3_tb
*  Design view name: schematic
.global vdd!
.temp 25.0
.option ARTIST=2 PSF=2 WARN_SEP=1
.option LIS_NEW=1 
.lib '/home/ff/ee241/synopsys-32nm/hspice/saed32nm.lib' TT
*  Library name: saed32nm_hvt
*  Cell name: DELLN3X2_HVT
*  View name: schematic
.subckt delln3x2_hvt a vdd vss y
    xmn2 sa2 sa1 net640 vss n105_hvt m=1 w=220e-9 l=30e-9 ad=10.5e-15 as=10.5e-15 pd=310e-9 ps=310e-9
    xmn3 net640 vdd net638 vss n105_hvt m=1 w=220e-9 l=30e-9 ad=10.5e-15 as=10.5e-15 pd=310e-9 ps=310e-9
    xmn4 net638 vdd vss vss n105_hvt m=1 w=220e-9 l=30e-9 ad=10.5e-15 as=10.5e-15 pd=310e-9 ps=310e-9
    xmn6 sa4 sa3 net635 vss n105_hvt m=1 w=250e-9 l=30e-9 ad=10.5e-15 as=10.5e-15 pd=310e-9 ps=310e-9
    xmn7 net635 vdd net634 vss n105_hvt m=1 w=250e-9 l=30e-9 ad=10.5e-15 as=10.5e-15 pd=310e-9 ps=310e-9
    xmn8 net634 vdd vss vss n105_hvt m=1 w=250e-9 l=30e-9 ad=10.5e-15 as=10.5e-15 pd=310e-9 ps=310e-9
    xmn10 sa6 sa5 net631 vss n105_hvt m=1 w=200e-9 l=30e-9 ad=10.5e-15 as=10.5e-15 pd=310e-9 ps=310e-9
    xmn11 net631 vdd net630 vss n105_hvt m=1 w=200e-9 l=30e-9 ad=10.5e-15 as=10.5e-15 pd=310e-9 ps=310e-9
    xmn12 net630 vdd vss vss n105_hvt m=1 w=200e-9 l=30e-9 ad=10.5e-15 as=10.5e-15 pd=310e-9 ps=310e-9
    xmn14 sa8 sa7 net627 vss n105_hvt m=1 w=170e-9 l=30e-9 ad=10.5e-15 as=10.5e-15 pd=310e-9 ps=310e-9
    xmn15 net627 vdd net626 vss n105_hvt m=1 w=170e-9 l=30e-9 ad=10.5e-15 as=10.5e-15 pd=310e-9 ps=310e-9
    xmn16 net626 vdd vss vss n105_hvt m=1 w=170e-9 l=30e-9 ad=10.5e-15 as=10.5e-15 pd=310e-9 ps=310e-9
    xmn18 sa10 sa9 net623 vss n105_hvt m=1 w=230e-9 l=30e-9 ad=10.5e-15 as=10.5e-15 pd=310e-9 ps=310e-9
    xmn19 net623 vdd net622 vss n105_hvt m=1 w=230e-9 l=30e-9 ad=10.5e-15 as=10.5e-15 pd=310e-9 ps=310e-9
    xmn20 net622 vdd vss vss n105_hvt m=1 w=230e-9 l=30e-9 ad=10.5e-15 as=10.5e-15 pd=310e-9 ps=310e-9
    xmn1 sa1 a vss vss n105_hvt m=1 w=160e-9 l=30e-9 ad=10.5e-15 as=10.5e-15 pd=310e-9 ps=310e-9
    xmn22 y sa11 vss vss n105_hvt m=2 w=420e-9 l=30e-9 ad=10.5e-15 as=10.5e-15 pd=310e-9 ps=310e-9
    xmn5 sa3 sa2 vss vss n105_hvt m=1 w=140e-9 l=30e-9 ad=10.5e-15 as=10.5e-15 pd=310e-9 ps=310e-9
    xmn9 sa5 sa4 vss vss n105_hvt m=1 w=120e-9 l=30e-9 ad=10.5e-15 as=10.5e-15 pd=310e-9 ps=310e-9
    xmn13 sa7 sa6 vss vss n105_hvt m=1 w=120e-9 l=30e-9 ad=10.5e-15 as=10.5e-15 pd=310e-9 ps=310e-9
    xmn17 sa9 sa8 vss vss n105_hvt m=1 w=110e-9 l=30e-9 ad=10.5e-15 as=10.5e-15 pd=310e-9 ps=310e-9
    xmn21 sa11 sa10 vss vss n105_hvt m=1 w=270e-9 l=30e-9 ad=10.5e-15 as=10.5e-15 pd=310e-9 ps=310e-9
    xmp3 net619 vss net617 vdd p105_hvt m=1 w=420e-9 l=30e-9 ad=10.5e-15 as=10.5e-15 pd=310e-9 ps=310e-9
    xmp2 sa2 sa1 net619 vdd p105_hvt m=1 w=420e-9 l=30e-9 ad=10.5e-15 as=10.5e-15 pd=310e-9 ps=310e-9
    xmp4 net617 vss vdd vdd p105_hvt m=1 w=420e-9 l=30e-9 ad=10.5e-15 as=10.5e-15 pd=310e-9 ps=310e-9
    xmp8 net613 vss vdd vdd p105_hvt m=1 w=400e-9 l=30e-9 ad=10.5e-15 as=10.5e-15 pd=310e-9 ps=310e-9
    xmp7 net614 vss net613 vdd p105_hvt m=1 w=400e-9 l=30e-9 ad=10.5e-15 as=10.5e-15 pd=310e-9 ps=310e-9
    xmp6 sa4 sa3 net614 vdd p105_hvt m=1 w=400e-9 l=30e-9 ad=10.5e-15 as=10.5e-15 pd=310e-9 ps=310e-9
    xmp12 net609 vss vdd vdd p105_hvt m=1 w=280e-9 l=30e-9 ad=10.5e-15 as=10.5e-15 pd=310e-9 ps=310e-9
    xmp11 net610 vss net609 vdd p105_hvt m=1 w=280e-9 l=30e-9 ad=10.5e-15 as=10.5e-15 pd=310e-9 ps=310e-9
    xmp10 sa6 sa5 net610 vdd p105_hvt m=1 w=280e-9 l=30e-9 ad=10.5e-15 as=10.5e-15 pd=310e-9 ps=310e-9
    xmp16 net605 vss vdd vdd p105_hvt m=1 w=340e-9 l=30e-9 ad=10.5e-15 as=10.5e-15 pd=310e-9 ps=310e-9
    xmp15 net606 vss net605 vdd p105_hvt m=1 w=340e-9 l=30e-9 ad=10.5e-15 as=10.5e-15 pd=310e-9 ps=310e-9
    xmp14 sa8 sa7 net606 vdd p105_hvt m=1 w=340e-9 l=30e-9 ad=10.5e-15 as=10.5e-15 pd=310e-9 ps=310e-9
    xmp20 net601 vss vdd vdd p105_hvt m=1 w=450e-9 l=30e-9 ad=10.5e-15 as=10.5e-15 pd=310e-9 ps=310e-9
    xmp19 net602 vss net601 vdd p105_hvt m=1 w=450e-9 l=30e-9 ad=10.5e-15 as=10.5e-15 pd=310e-9 ps=310e-9
    xmp18 sa10 sa9 net602 vdd p105_hvt m=1 w=450e-9 l=30e-9 ad=10.5e-15 as=10.5e-15 pd=310e-9 ps=310e-9
    xmp1 sa1 a vdd vdd p105_hvt m=1 w=160e-9 l=30e-9 ad=10.5e-15 as=10.5e-15 pd=310e-9 ps=310e-9
    xmp22 y sa11 vdd vdd p105_hvt m=2 w=800e-9 l=30e-9 ad=10.5e-15 as=10.5e-15 pd=310e-9 ps=310e-9
    xmp5 sa3 sa2 vdd vdd p105_hvt m=1 w=160e-9 l=30e-9 ad=10.5e-15 as=10.5e-15 pd=310e-9 ps=310e-9
    xmp9 sa5 sa4 vdd vdd p105_hvt m=1 w=140e-9 l=30e-9 ad=10.5e-15 as=10.5e-15 pd=310e-9 ps=310e-9
    xmp13 sa7 sa6 vdd vdd p105_hvt m=1 w=160e-9 l=30e-9 ad=10.5e-15 as=10.5e-15 pd=310e-9 ps=310e-9
    xmp17 sa9 sa8 vdd vdd p105_hvt m=1 w=140e-9 l=30e-9 ad=10.5e-15 as=10.5e-15 pd=310e-9 ps=310e-9
    xmp21 sa11 sa10 vdd vdd p105_hvt m=1 w=520e-9 l=30e-9 ad=10.5e-15 as=10.5e-15 pd=310e-9 ps=310e-9
.ends 
*  End of subcircuit definition.
*  Library name: saed32nm_hvt
*  Cell name: NBUFFX4_HVT
*  View name: schematic
.subckt nbuffx4_hvt a vdd vss y
    xmp2 y an vdd vdd p105_hvt m=4 w=800e-9 l=30e-9 ad=10.5e-15 as=10.5e-15 pd=310e-9 ps=310e-9
    xmp1 an a vdd vdd p105_hvt m=1 w=800e-9 l=30e-9 ad=10.5e-15 as=10.5e-15 pd=310e-9 ps=310e-9
    xmn2 y an vss vss n105_hvt m=4 w=420e-9 l=30e-9 ad=10.5e-15 as=10.5e-15 pd=310e-9 ps=310e-9
    xmn1 an a vss vss n105_hvt m=1 w=420e-9 l=30e-9 ad=10.5e-15 as=10.5e-15 pd=310e-9 ps=310e-9
.ends 
*  End of subcircuit definition.
*  Library name: saed32nm_hvt
*  Cell name: INVX2_HVT
*  View name: schematic
.subckt invx2_hvt a vdd vss y
    xmp y a vdd vdd p105_hvt m=2 w=800e-9 l=30e-9 ad=10.5e-15 as=10.5e-15 pd=310e-9 ps=310e-9
    xmn y a vss vss n105_hvt m=2 w=420e-9 l=30e-9 ad=10.5e-15 as=10.5e-15 pd=310e-9 ps=310e-9
.ends 
*  End of subcircuit definition.
*  Library name: saed32nm_hvt
*  Cell name: INVX4_HVT
*  View name: schematic
.subckt invx4_hvt a vdd vss y
    xmp y a vdd vdd p105_hvt m=4 w=800e-9 l=30e-9 ad=10.5e-15 as=10.5e-15 pd=310e-9 ps=310e-9
    xmn y a vss vss n105_hvt m=4 w=420e-9 l=30e-9 ad=10.5e-15 as=10.5e-15 pd=310e-9 ps=310e-9
.ends 
*  End of subcircuit definition.
*  Library name: saed32nm_hvt
*  Cell name: CGLPPRX8_HVT
*  View name: schematic
.subckt cglpprx8_hvt clk en gclk se vdd vss
    xmp1 net1 se vdd vdd p105_hvt m=1 w=300e-9 l=30e-9 ad=10.5e-15 as=10.5e-15 pd=310e-9 ps=310e-9
    xmp2 net2 en net1 vdd p105_hvt m=1 w=300e-9 l=30e-9 ad=10.5e-15 as=10.5e-15 pd=310e-9 ps=310e-9
    xmp10 clkn clk vdd vdd p105_hvt m=1 w=740e-9 l=30e-9 ad=10.5e-15 as=10.5e-15 pd=310e-9 ps=310e-9
    xmp6 net3 clkn net4 vdd p105_hvt m=1 w=300e-9 l=30e-9 ad=10.5e-15 as=10.5e-15 pd=310e-9 ps=310e-9
    xmp5 net4 enl vdd vdd p105_hvt m=1 w=300e-9 l=30e-9 ad=10.5e-15 as=10.5e-15 pd=310e-9 ps=310e-9
    xmp9 gclk net6 vdd vdd p105_hvt m=8 w=800e-9 l=30e-9 ad=10.5e-15 as=10.5e-15 pd=310e-9 ps=310e-9
    xmp4 enl net3 vdd vdd p105_hvt m=1 w=400e-9 l=30e-9 ad=10.5e-15 as=10.5e-15 pd=310e-9 ps=310e-9
    xmp11 clkp clkn vdd vdd p105_hvt m=1 w=740e-9 l=30e-9 ad=10.5e-15 as=10.5e-15 pd=310e-9 ps=310e-9
    xmp3 net2 clkp net3 vdd p105_hvt m=1 w=300e-9 l=30e-9 ad=10.5e-15 as=10.5e-15 pd=310e-9 ps=310e-9
    xmp8 net6 clkp vdd vdd p105_hvt m=1 w=300e-9 l=30e-9 ad=10.5e-15 as=10.5e-15 pd=310e-9 ps=310e-9
    xmp7 net6 enl vdd vdd p105_hvt m=1 w=300e-9 l=30e-9 ad=10.5e-15 as=10.5e-15 pd=310e-9 ps=310e-9
    xmn1 net2 se vss vss n105_hvt m=1 w=300e-9 l=30e-9 ad=10.5e-15 as=10.5e-15 pd=310e-9 ps=310e-9
    xmn2 net2 en vss vss n105_hvt m=1 w=300e-9 l=30e-9 ad=10.5e-15 as=10.5e-15 pd=310e-9 ps=310e-9
    xmn5 net3 clkp net5 vss n105_hvt m=1 w=300e-9 l=30e-9 ad=10.5e-15 as=10.5e-15 pd=310e-9 ps=310e-9
    xmn6 net5 enl vss vss n105_hvt m=1 w=300e-9 l=30e-9 ad=10.5e-15 as=10.5e-15 pd=310e-9 ps=310e-9
    xmn10 clkn clk vss vss n105_hvt m=1 w=400e-9 l=30e-9 ad=10.5e-15 as=10.5e-15 pd=310e-9 ps=310e-9
    xmn8 net7 clkp vss vss n105_hvt m=1 w=300e-9 l=30e-9 ad=10.5e-15 as=10.5e-15 pd=310e-9 ps=310e-9
    xmn7 net6 enl net7 vss n105_hvt m=1 w=300e-9 l=30e-9 ad=10.5e-15 as=10.5e-15 pd=310e-9 ps=310e-9
    xmn9 gclk net6 vss vss n105_hvt m=8 w=420e-9 l=30e-9 ad=10.5e-15 as=10.5e-15 pd=310e-9 ps=310e-9
    xmn4 enl net3 vss vss n105_hvt m=1 w=400e-9 l=30e-9 ad=10.5e-15 as=10.5e-15 pd=310e-9 ps=310e-9
    xmn11 clkp clkn vss vss n105_hvt m=1 w=400e-9 l=30e-9 ad=10.5e-15 as=10.5e-15 pd=310e-9 ps=310e-9
    xmn3 net2 clkn net3 vss n105_hvt m=1 w=300e-9 l=30e-9 ad=10.5e-15 as=10.5e-15 pd=310e-9 ps=310e-9
.ends 
*  End of subcircuit definition.
*  Library name: phase2_v
*  Cell name: SNPS_CLOCK_GATE_HIGH_counter_mem_address
*  View name: schematic
.subckt snps_clock_gate_high_counter_mem_address clk en enclk te vss vdd!
    xlatch clk en enclk te vdd! vss cglpprx8_hvt
.ends 
*  End of subcircuit definition.
*  Library name: saed32nm_hvt
*  Cell name: NAND2X0_HVT
*  View name: schematic
.subckt nand2x0_hvt a1 a2 vdd vss y
    xmp2 y a2 vdd vdd p105_hvt m=1 w=300e-9 l=30e-9 ad=10.5e-15 as=10.5e-15 pd=310e-9 ps=310e-9
    xmp1 y a1 vdd vdd p105_hvt m=1 w=300e-9 l=30e-9 ad=10.5e-15 as=10.5e-15 pd=310e-9 ps=310e-9
    xmn1 y a1 sa1 vss n105_hvt m=1 w=320e-9 l=30e-9 ad=10.5e-15 as=10.5e-15 pd=310e-9 ps=310e-9
    xmn2 sa1 a2 vss vss n105_hvt m=1 w=320e-9 l=30e-9 ad=10.5e-15 as=10.5e-15 pd=310e-9 ps=310e-9
.ends 
*  End of subcircuit definition.
*  Library name: saed32nm_hvt
*  Cell name: NAND4X0_HVT
*  View name: schematic
.subckt nand4x0_hvt a1 a2 a3 a4 vdd vss y
    xmn1 y a1 sa1 vss n105_hvt m=1 w=520e-9 l=30e-9 ad=10.5e-15 as=10.5e-15 pd=310e-9 ps=310e-9
    xmn2 sa1 a2 sa2 vss n105_hvt m=1 w=520e-9 l=30e-9 ad=10.5e-15 as=10.5e-15 pd=310e-9 ps=310e-9
    xmn4 sa3 a4 vss vss n105_hvt m=1 w=520e-9 l=30e-9 ad=10.5e-15 as=10.5e-15 pd=310e-9 ps=310e-9
    xmn3 sa2 a3 sa3 vss n105_hvt m=1 w=520e-9 l=30e-9 ad=10.5e-15 as=10.5e-15 pd=310e-9 ps=310e-9
    xmp1 y a1 vdd vdd p105_hvt m=1 w=400e-9 l=30e-9 ad=10.5e-15 as=10.5e-15 pd=310e-9 ps=310e-9
    xmp2 y a2 vdd vdd p105_hvt m=1 w=400e-9 l=30e-9 ad=10.5e-15 as=10.5e-15 pd=310e-9 ps=310e-9
    xmp4 y a4 vdd vdd p105_hvt m=1 w=400e-9 l=30e-9 ad=10.5e-15 as=10.5e-15 pd=310e-9 ps=310e-9
    xmp3 y a3 vdd vdd p105_hvt m=1 w=400e-9 l=30e-9 ad=10.5e-15 as=10.5e-15 pd=310e-9 ps=310e-9
.ends 
*  End of subcircuit definition.
*  Library name: saed32nm_hvt
*  Cell name: INVX0_HVT
*  View name: schematic
.subckt invx0_hvt a vdd vss y
    xmp y a vdd vdd p105_hvt m=1 w=520e-9 l=30e-9 ad=10.5e-15 as=10.5e-15 pd=310e-9 ps=310e-9
    xmn y a vss vss n105_hvt m=1 w=270e-9 l=30e-9 ad=10.5e-15 as=10.5e-15 pd=310e-9 ps=310e-9
.ends 
*  End of subcircuit definition.
*  Library name: saed32nm_hvt
*  Cell name: DFFARX2_HVT
*  View name: schematic
.subckt dffarx2_hvt clk d q qn rstb vdd vss
    xmp01 d1 d vdd vdd p105_hvt m=1 w=450e-9 l=30e-9 ad=10.5e-15 as=10.5e-15 pd=310e-9 ps=310e-9
    xmp10 fb4 clkp vdd vdd p105_hvt m=1 w=300e-9 l=30e-9 ad=10.5e-15 as=10.5e-15 pd=310e-9 ps=310e-9
    xmp11 d4 d5 fb4 vdd p105_hvt m=1 w=300e-9 l=30e-9 ad=10.5e-15 as=10.5e-15 pd=310e-9 ps=310e-9
    xmp14 qn d4 vdd vdd p105_hvt m=2 w=800e-9 l=30e-9 ad=10.5e-15 as=10.5e-15 pd=310e-9 ps=310e-9
    xmp13 q d5 vdd vdd p105_hvt m=2 w=800e-9 l=30e-9 ad=10.5e-15 as=10.5e-15 pd=310e-9 ps=310e-9
    xmpc1 clkn clk vdd vdd p105_hvt m=1 w=740e-9 l=30e-9 ad=10.5e-15 as=10.5e-15 pd=310e-9 ps=310e-9
    xmp1 d1 clkp d2 vdd p105_hvt m=1 w=400e-9 l=30e-9 ad=10.5e-15 as=10.5e-15 pd=310e-9 ps=310e-9
    xmpc2 clkp clkn vdd vdd p105_hvt m=1 w=740e-9 l=30e-9 ad=10.5e-15 as=10.5e-15 pd=310e-9 ps=310e-9
    xmp2 d3 d2 vdd vdd p105_hvt m=1 w=700e-9 l=30e-9 ad=10.5e-15 as=10.5e-15 pd=310e-9 ps=310e-9
    xmp8 vdd d4 d5 vdd p105_hvt m=1 w=520e-9 l=30e-9 ad=10.5e-15 as=10.5e-15 pd=310e-9 ps=310e-9
    xmp9 d5 rstb vdd vdd p105_hvt m=1 w=520e-9 l=30e-9 ad=10.5e-15 as=10.5e-15 pd=310e-9 ps=310e-9
    xmp7 d4 clkn d3 vdd p105_hvt m=1 w=400e-9 l=30e-9 ad=10.5e-15 as=10.5e-15 pd=310e-9 ps=310e-9
    xmp6 d2 d3 fb1 vdd p105_hvt m=1 w=300e-9 l=30e-9 ad=10.5e-15 as=10.5e-15 pd=310e-9 ps=310e-9
    xmp5 d2 rstb fb1 vdd p105_hvt m=1 w=300e-9 l=30e-9 ad=10.5e-15 as=10.5e-15 pd=310e-9 ps=310e-9
    xmp4 fb1 clkn vdd vdd p105_hvt m=1 w=300e-9 l=30e-9 ad=10.5e-15 as=10.5e-15 pd=310e-9 ps=310e-9
    xmn4 fb3 clkp vss vss n105_hvt m=1 w=300e-9 l=30e-9 ad=10.5e-15 as=10.5e-15 pd=310e-9 ps=310e-9
    xmn5 fb2 rstb fb3 vss n105_hvt m=1 w=300e-9 l=30e-9 ad=10.5e-15 as=10.5e-15 pd=310e-9 ps=310e-9
    xmn6 d2 d3 fb2 vss n105_hvt m=1 w=300e-9 l=30e-9 ad=10.5e-15 as=10.5e-15 pd=310e-9 ps=310e-9
    xmn01 d1 d vss vss n105_hvt m=1 w=600e-9 l=30e-9 ad=10.5e-15 as=10.5e-15 pd=310e-9 ps=310e-9
    xmn9 d5 rstb net294 vss n105_hvt m=1 w=350e-9 l=30e-9 ad=10.5e-15 as=10.5e-15 pd=310e-9 ps=310e-9
    xmn8 net294 d4 vss vss n105_hvt m=1 w=350e-9 l=30e-9 ad=10.5e-15 as=10.5e-15 pd=310e-9 ps=310e-9
    xmn14 qn d4 vss vss n105_hvt m=2 w=420e-9 l=30e-9 ad=10.5e-15 as=10.5e-15 pd=310e-9 ps=310e-9
    xmn11 d4 d5 fb5 vss n105_hvt m=1 w=300e-9 l=30e-9 ad=10.5e-15 as=10.5e-15 pd=310e-9 ps=310e-9
    xmn10 fb5 clkn vss vss n105_hvt m=1 w=300e-9 l=30e-9 ad=10.5e-15 as=10.5e-15 pd=310e-9 ps=310e-9
    xmn13 q d5 vss vss n105_hvt m=2 w=420e-9 l=30e-9 ad=10.5e-15 as=10.5e-15 pd=310e-9 ps=310e-9
    xmnc1 clkn clk vss vss n105_hvt m=1 w=400e-9 l=30e-9 ad=10.5e-15 as=10.5e-15 pd=310e-9 ps=310e-9
    xmn1 d1 clkn d2 vss n105_hvt m=1 w=300e-9 l=30e-9 ad=10.5e-15 as=10.5e-15 pd=310e-9 ps=310e-9
    xmnc2 clkp clkn vss vss n105_hvt m=1 w=400e-9 l=30e-9 ad=10.5e-15 as=10.5e-15 pd=310e-9 ps=310e-9
    xmn2 d3 d2 vss vss n105_hvt m=1 w=350e-9 l=30e-9 ad=10.5e-15 as=10.5e-15 pd=310e-9 ps=310e-9
    xmn7 d4 clkp d3 vss n105_hvt m=1 w=300e-9 l=30e-9 ad=10.5e-15 as=10.5e-15 pd=310e-9 ps=310e-9
.ends 
*  End of subcircuit definition.
*  Library name: saed32nm_hvt
*  Cell name: OA21X1_HVT
*  View name: schematic
.subckt oa21x1_hvt a1 a2 a3 vdd vss y
    xmp2 net6 a2 net1 vdd p105_hvt m=1 w=550e-9 l=30e-9 ad=10.5e-15 as=10.5e-15 pd=310e-9 ps=310e-9
    xmp1 net1 a1 vdd vdd p105_hvt m=1 w=550e-9 l=30e-9 ad=10.5e-15 as=10.5e-15 pd=310e-9 ps=310e-9
    xmp3 net6 a3 vdd vdd p105_hvt m=1 w=250e-9 l=30e-9 ad=10.5e-15 as=10.5e-15 pd=310e-9 ps=310e-9
    xmp7 y net6 vdd vdd p105_hvt m=1 w=800e-9 l=30e-9 ad=10.5e-15 as=10.5e-15 pd=310e-9 ps=310e-9
    xmn2 net2 a2 vss vss n105_hvt m=1 w=350e-9 l=30e-9 ad=10.5e-15 as=10.5e-15 pd=310e-9 ps=310e-9
    xmn1 net2 a1 vss vss n105_hvt m=1 w=350e-9 l=30e-9 ad=10.5e-15 as=10.5e-15 pd=310e-9 ps=310e-9
    xmn3 net6 a3 net2 vss n105_hvt m=1 w=200e-9 l=30e-9 ad=10.5e-15 as=10.5e-15 pd=310e-9 ps=310e-9
    xmn7 y net6 vss vss n105_hvt m=1 w=420e-9 l=30e-9 ad=10.5e-15 as=10.5e-15 pd=310e-9 ps=310e-9
.ends 
*  End of subcircuit definition.
*  Library name: saed32nm_hvt
*  Cell name: OR3X1_HVT
*  View name: schematic
.subckt or3x1_hvt a1 a2 a3 vdd vss y
    xmn1 sa1 a1 vss vss n105_hvt m=1 w=150e-9 l=30e-9 ad=10.5e-15 as=10.5e-15 pd=310e-9 ps=310e-9
    xmn3 sa1 a3 vss vss n105_hvt m=1 w=150e-9 l=30e-9 ad=10.5e-15 as=10.5e-15 pd=310e-9 ps=310e-9
    xmn2 sa1 a2 vss vss n105_hvt m=1 w=150e-9 l=30e-9 ad=10.5e-15 as=10.5e-15 pd=310e-9 ps=310e-9
    xmn0 y sa1 vss vss n105_hvt m=1 w=420e-9 l=30e-9 ad=10.5e-15 as=10.5e-15 pd=310e-9 ps=310e-9
    xmp1 net174 a1 vdd vdd p105_hvt m=1 w=800e-9 l=30e-9 ad=10.5e-15 as=10.5e-15 pd=310e-9 ps=310e-9
    xmp3 sa1 a3 net173 vdd p105_hvt m=1 w=800e-9 l=30e-9 ad=10.5e-15 as=10.5e-15 pd=310e-9 ps=310e-9
    xmp2 net173 a2 net174 vdd p105_hvt m=1 w=800e-9 l=30e-9 ad=10.5e-15 as=10.5e-15 pd=310e-9 ps=310e-9
    xmp0 y sa1 vdd vdd p105_hvt m=1 w=800e-9 l=30e-9 ad=10.5e-15 as=10.5e-15 pd=310e-9 ps=310e-9
.ends 
*  End of subcircuit definition.
*  Library name: saed32nm_hvt
*  Cell name: DFFARX1_HVT
*  View name: schematic
.subckt dffarx1_hvt clk d q qn rstb vdd vss
    xmp01 d1 d vdd vdd p105_hvt m=1 w=450e-9 l=30e-9 ad=10.5e-15 as=10.5e-15 pd=310e-9 ps=310e-9
    xmp10 fb4 clkp vdd vdd p105_hvt m=1 w=300e-9 l=30e-9 ad=10.5e-15 as=10.5e-15 pd=310e-9 ps=310e-9
    xmp11 d4 d5 fb4 vdd p105_hvt m=1 w=300e-9 l=30e-9 ad=10.5e-15 as=10.5e-15 pd=310e-9 ps=310e-9
    xmp14 qn d4 vdd vdd p105_hvt m=1 w=800e-9 l=30e-9 ad=10.5e-15 as=10.5e-15 pd=310e-9 ps=310e-9
    xmp13 q d5 vdd vdd p105_hvt m=1 w=800e-9 l=30e-9 ad=10.5e-15 as=10.5e-15 pd=310e-9 ps=310e-9
    xmpc1 clkn clk vdd vdd p105_hvt m=1 w=740e-9 l=30e-9 ad=10.5e-15 as=10.5e-15 pd=310e-9 ps=310e-9
    xmp1 d1 clkp d2 vdd p105_hvt m=1 w=400e-9 l=30e-9 ad=10.5e-15 as=10.5e-15 pd=310e-9 ps=310e-9
    xmpc2 clkp clkn vdd vdd p105_hvt m=1 w=740e-9 l=30e-9 ad=10.5e-15 as=10.5e-15 pd=310e-9 ps=310e-9
    xmp2 d3 d2 vdd vdd p105_hvt m=1 w=700e-9 l=30e-9 ad=10.5e-15 as=10.5e-15 pd=310e-9 ps=310e-9
    xmp8 vdd d4 d5 vdd p105_hvt m=1 w=520e-9 l=30e-9 ad=10.5e-15 as=10.5e-15 pd=310e-9 ps=310e-9
    xmp9 d5 rstb vdd vdd p105_hvt m=1 w=520e-9 l=30e-9 ad=10.5e-15 as=10.5e-15 pd=310e-9 ps=310e-9
    xmp7 d4 clkn d3 vdd p105_hvt m=1 w=400e-9 l=30e-9 ad=10.5e-15 as=10.5e-15 pd=310e-9 ps=310e-9
    xmp6 d2 d3 fb1 vdd p105_hvt m=1 w=300e-9 l=30e-9 ad=10.5e-15 as=10.5e-15 pd=310e-9 ps=310e-9
    xmp5 d2 rstb fb1 vdd p105_hvt m=1 w=300e-9 l=30e-9 ad=10.5e-15 as=10.5e-15 pd=310e-9 ps=310e-9
    xmp4 fb1 clkn vdd vdd p105_hvt m=1 w=300e-9 l=30e-9 ad=10.5e-15 as=10.5e-15 pd=310e-9 ps=310e-9
    xmn4 fb3 clkp vss vss n105_hvt m=1 w=300e-9 l=30e-9 ad=10.5e-15 as=10.5e-15 pd=310e-9 ps=310e-9
    xmn5 fb2 rstb fb3 vss n105_hvt m=1 w=300e-9 l=30e-9 ad=10.5e-15 as=10.5e-15 pd=310e-9 ps=310e-9
    xmn6 d2 d3 fb2 vss n105_hvt m=1 w=300e-9 l=30e-9 ad=10.5e-15 as=10.5e-15 pd=310e-9 ps=310e-9
    xmn01 d1 d vss vss n105_hvt m=1 w=420e-9 l=30e-9 ad=10.5e-15 as=10.5e-15 pd=310e-9 ps=310e-9
    xmn9 d5 rstb net294 vss n105_hvt m=1 w=350e-9 l=30e-9 ad=10.5e-15 as=10.5e-15 pd=310e-9 ps=310e-9
    xmn8 net294 d4 vss vss n105_hvt m=1 w=350e-9 l=30e-9 ad=10.5e-15 as=10.5e-15 pd=310e-9 ps=310e-9
    xmn14 qn d4 vss vss n105_hvt m=1 w=420e-9 l=30e-9 ad=10.5e-15 as=10.5e-15 pd=310e-9 ps=310e-9
    xmn11 d4 d5 fb5 vss n105_hvt m=1 w=300e-9 l=30e-9 ad=10.5e-15 as=10.5e-15 pd=310e-9 ps=310e-9
    xmn10 fb5 clkn vss vss n105_hvt m=1 w=300e-9 l=30e-9 ad=10.5e-15 as=10.5e-15 pd=310e-9 ps=310e-9
    xmn13 q d5 vss vss n105_hvt m=1 w=420e-9 l=30e-9 ad=10.5e-15 as=10.5e-15 pd=310e-9 ps=310e-9
    xmnc1 clkn clk vss vss n105_hvt m=1 w=400e-9 l=30e-9 ad=10.5e-15 as=10.5e-15 pd=310e-9 ps=310e-9
    xmn1 d1 clkn d2 vss n105_hvt m=1 w=300e-9 l=30e-9 ad=10.5e-15 as=10.5e-15 pd=310e-9 ps=310e-9
    xmnc2 clkp clkn vss vss n105_hvt m=1 w=400e-9 l=30e-9 ad=10.5e-15 as=10.5e-15 pd=310e-9 ps=310e-9
    xmn2 d3 d2 vss vss n105_hvt m=1 w=350e-9 l=30e-9 ad=10.5e-15 as=10.5e-15 pd=310e-9 ps=310e-9
    xmn7 d4 clkp d3 vss n105_hvt m=1 w=300e-9 l=30e-9 ad=10.5e-15 as=10.5e-15 pd=310e-9 ps=310e-9
.ends 
*  End of subcircuit definition.
*  Library name: saed32nm_hvt
*  Cell name: OA221X1_HVT
*  View name: schematic
.subckt oa221x1_hvt a1 a2 a3 a4 a5 vdd vss y
    xmp4 net6 a4 net3 vdd p105_hvt m=1 w=410e-9 l=30e-9 ad=10.5e-15 as=10.5e-15 pd=310e-9 ps=310e-9
    xmp3 net3 a3 vdd vdd p105_hvt m=1 w=410e-9 l=30e-9 ad=10.5e-15 as=10.5e-15 pd=310e-9 ps=310e-9
    xmp2 net6 a2 net1 vdd p105_hvt m=1 w=410e-9 l=30e-9 ad=10.5e-15 as=10.5e-15 pd=310e-9 ps=310e-9
    xmp1 net1 a1 vdd vdd p105_hvt m=1 w=410e-9 l=30e-9 ad=10.5e-15 as=10.5e-15 pd=310e-9 ps=310e-9
    xmp7 y net6 vdd vdd p105_hvt m=1 w=800e-9 l=30e-9 ad=10.5e-15 as=10.5e-15 pd=310e-9 ps=310e-9
    xmp5 net6 a5 vdd vdd p105_hvt m=1 w=230e-9 l=30e-9 ad=10.5e-15 as=10.5e-15 pd=310e-9 ps=310e-9
    xmn4 net4 a4 net2 vss n105_hvt m=1 w=350e-9 l=30e-9 ad=10.5e-15 as=10.5e-15 pd=310e-9 ps=310e-9
    xmn3 net4 a3 net2 vss n105_hvt m=1 w=350e-9 l=30e-9 ad=10.5e-15 as=10.5e-15 pd=310e-9 ps=310e-9
    xmn2 net2 a2 vss vss n105_hvt m=1 w=350e-9 l=30e-9 ad=10.5e-15 as=10.5e-15 pd=310e-9 ps=310e-9
    xmn1 net2 a1 vss vss n105_hvt m=1 w=350e-9 l=30e-9 ad=10.5e-15 as=10.5e-15 pd=310e-9 ps=310e-9
    xmn7 y net6 vss vss n105_hvt m=1 w=420e-9 l=30e-9 ad=10.5e-15 as=10.5e-15 pd=310e-9 ps=310e-9
    xmn5 net6 a5 net4 vss n105_hvt m=1 w=350e-9 l=30e-9 ad=10.5e-15 as=10.5e-15 pd=310e-9 ps=310e-9
.ends 
*  End of subcircuit definition.
*  Library name: saed32nm_hvt
*  Cell name: OA222X1_HVT
*  View name: schematic
.subckt oa222x1_hvt a1 a2 a3 a4 a5 a6 vdd vss y
    xmn4 net4 a4 net2 vss n105_hvt m=1 w=350e-9 l=30e-9 ad=10.5e-15 as=10.5e-15 pd=310e-9 ps=310e-9
    xmn3 net4 a3 net2 vss n105_hvt m=1 w=350e-9 l=30e-9 ad=10.5e-15 as=10.5e-15 pd=310e-9 ps=310e-9
    xmn5 net6 a5 net4 vss n105_hvt m=1 w=350e-9 l=30e-9 ad=10.5e-15 as=10.5e-15 pd=310e-9 ps=310e-9
    xmn6 net6 a6 net4 vss n105_hvt m=1 w=350e-9 l=30e-9 ad=10.5e-15 as=10.5e-15 pd=310e-9 ps=310e-9
    xmn2 net2 a2 vss vss n105_hvt m=1 w=350e-9 l=30e-9 ad=10.5e-15 as=10.5e-15 pd=310e-9 ps=310e-9
    xmn1 net2 a1 vss vss n105_hvt m=1 w=350e-9 l=30e-9 ad=10.5e-15 as=10.5e-15 pd=310e-9 ps=310e-9
    xmn7 y net6 vss vss n105_hvt m=1 w=420e-9 l=30e-9 ad=10.5e-15 as=10.5e-15 pd=310e-9 ps=310e-9
    xmp4 net6 a4 net3 vdd p105_hvt m=1 w=420e-9 l=30e-9 ad=10.5e-15 as=10.5e-15 pd=310e-9 ps=310e-9
    xmp3 net3 a3 vdd vdd p105_hvt m=1 w=420e-9 l=30e-9 ad=10.5e-15 as=10.5e-15 pd=310e-9 ps=310e-9
    xmp5 net5 a5 vdd vdd p105_hvt m=1 w=420e-9 l=30e-9 ad=10.5e-15 as=10.5e-15 pd=310e-9 ps=310e-9
    xmp6 net6 a6 net5 vdd p105_hvt m=1 w=420e-9 l=30e-9 ad=10.5e-15 as=10.5e-15 pd=310e-9 ps=310e-9
    xmp2 net6 a2 net1 vdd p105_hvt m=1 w=420e-9 l=30e-9 ad=10.5e-15 as=10.5e-15 pd=310e-9 ps=310e-9
    xmp1 net1 a1 vdd vdd p105_hvt m=1 w=420e-9 l=30e-9 ad=10.5e-15 as=10.5e-15 pd=310e-9 ps=310e-9
    xmp7 y net6 vdd vdd p105_hvt m=1 w=800e-9 l=30e-9 ad=10.5e-15 as=10.5e-15 pd=310e-9 ps=310e-9
.ends 
*  End of subcircuit definition.
*  Library name: saed32nm_hvt
*  Cell name: NBUFFX2_HVT
*  View name: schematic
.subckt nbuffx2_hvt a vdd vss y
    xmp2 y an vdd vdd p105_hvt m=2 w=800e-9 l=30e-9 ad=10.5e-15 as=10.5e-15 pd=310e-9 ps=310e-9
    xmp1 an a vdd vdd p105_hvt m=1 w=520e-9 l=30e-9 ad=10.5e-15 as=10.5e-15 pd=310e-9 ps=310e-9
    xmn2 y an vss vss n105_hvt m=2 w=420e-9 l=30e-9 ad=10.5e-15 as=10.5e-15 pd=310e-9 ps=310e-9
    xmn1 an a vss vss n105_hvt m=1 w=270e-9 l=30e-9 ad=10.5e-15 as=10.5e-15 pd=310e-9 ps=310e-9
.ends 
*  End of subcircuit definition.
*  Library name: saed32nm_hvt
*  Cell name: HADDX1_HVT
*  View name: schematic
.subckt haddx1_hvt a0 b0 c1 so vdd vss
    xmn4 net292 b0 net287 vss n105_hvt m=1 w=420e-9 l=30e-9 ad=10.5e-15 as=10.5e-15 pd=310e-9 ps=310e-9
    xmn5 net287 a0 vss vss n105_hvt m=1 w=420e-9 l=30e-9 ad=10.5e-15 as=10.5e-15 pd=310e-9 ps=310e-9
    xmn7 c1 net292 vss vss n105_hvt m=1 w=420e-9 l=30e-9 ad=10.5e-15 as=10.5e-15 pd=310e-9 ps=310e-9
    xmn6 so net295 vss vss n105_hvt m=1 w=420e-9 l=30e-9 ad=10.5e-15 as=10.5e-15 pd=310e-9 ps=310e-9
    xmn3 net289 net292 vss vss n105_hvt m=1 w=420e-9 l=30e-9 ad=10.5e-15 as=10.5e-15 pd=310e-9 ps=310e-9
    xmn1 net295 a0 net289 vss n105_hvt m=1 w=420e-9 l=30e-9 ad=10.5e-15 as=10.5e-15 pd=310e-9 ps=310e-9
    xmn2 net295 b0 net289 vss n105_hvt m=1 w=420e-9 l=30e-9 ad=10.5e-15 as=10.5e-15 pd=310e-9 ps=310e-9
    xmp7 c1 net292 vdd vdd p105_hvt m=1 w=800e-9 l=30e-9 ad=10.5e-15 as=10.5e-15 pd=310e-9 ps=310e-9
    xmp6 so net295 vdd vdd p105_hvt m=1 w=800e-9 l=30e-9 ad=10.5e-15 as=10.5e-15 pd=310e-9 ps=310e-9
    xmp2 net295 b0 net288 vdd p105_hvt m=1 w=450e-9 l=30e-9 ad=10.5e-15 as=10.5e-15 pd=310e-9 ps=310e-9
    xmp1 net288 a0 vdd vdd p105_hvt m=1 w=450e-9 l=30e-9 ad=10.5e-15 as=10.5e-15 pd=310e-9 ps=310e-9
    xmp5 net292 b0 vdd vdd p105_hvt m=1 w=420e-9 l=30e-9 ad=10.5e-15 as=10.5e-15 pd=310e-9 ps=310e-9
    xmp4 net292 a0 vdd vdd p105_hvt m=1 w=420e-9 l=30e-9 ad=10.5e-15 as=10.5e-15 pd=310e-9 ps=310e-9
    xmp3 net295 net292 vdd vdd p105_hvt m=1 w=450e-9 l=30e-9 ad=10.5e-15 as=10.5e-15 pd=310e-9 ps=310e-9
.ends 
*  End of subcircuit definition.
*  Library name: saed32nm_hvt
*  Cell name: AND2X1_HVT
*  View name: schematic
.subckt and2x1_hvt a1 a2 vdd vss y
    xmn1 y1 a1 sa1 vss n105_hvt m=1 w=420e-9 l=30e-9 ad=10.5e-15 as=10.5e-15 pd=310e-9 ps=310e-9
    xmn2 sa1 a2 vss vss n105_hvt m=1 w=420e-9 l=30e-9 ad=10.5e-15 as=10.5e-15 pd=310e-9 ps=310e-9
    xmn3 y y1 vss vss n105_hvt m=1 w=420e-9 l=30e-9 ad=10.5e-15 as=10.5e-15 pd=310e-9 ps=310e-9
    xmp2 y1 a2 vdd vdd p105_hvt m=1 w=390e-9 l=30e-9 ad=10.5e-15 as=10.5e-15 pd=310e-9 ps=310e-9
    xmp1 y1 a1 vdd vdd p105_hvt m=1 w=390e-9 l=30e-9 ad=10.5e-15 as=10.5e-15 pd=310e-9 ps=310e-9
    xmp3 y y1 vdd vdd p105_hvt m=1 w=800e-9 l=30e-9 ad=10.5e-15 as=10.5e-15 pd=310e-9 ps=310e-9
.ends 
*  End of subcircuit definition.
*  Library name: saed32nm_hvt
*  Cell name: AND3X1_HVT
*  View name: schematic
.subckt and3x1_hvt a1 a2 a3 vdd vss y
    xmn3 sa2 a3 vss vss n105_hvt m=1 w=420e-9 l=30e-9 ad=10.5e-15 as=10.5e-15 pd=310e-9 ps=310e-9
    xmn1 y1 a1 sa1 vss n105_hvt m=1 w=420e-9 l=30e-9 ad=10.5e-15 as=10.5e-15 pd=310e-9 ps=310e-9
    xmn2 sa1 a2 sa2 vss n105_hvt m=1 w=420e-9 l=30e-9 ad=10.5e-15 as=10.5e-15 pd=310e-9 ps=310e-9
    xmn4 y y1 vss vss n105_hvt m=1 w=420e-9 l=30e-9 ad=10.5e-15 as=10.5e-15 pd=310e-9 ps=310e-9
    xmp3 y1 a3 vdd vdd p105_hvt m=1 w=260e-9 l=30e-9 ad=10.5e-15 as=10.5e-15 pd=310e-9 ps=310e-9
    xmp2 y1 a2 vdd vdd p105_hvt m=1 w=260e-9 l=30e-9 ad=10.5e-15 as=10.5e-15 pd=310e-9 ps=310e-9
    xmp1 y1 a1 vdd vdd p105_hvt m=1 w=260e-9 l=30e-9 ad=10.5e-15 as=10.5e-15 pd=310e-9 ps=310e-9
    xmp4 y y1 vdd vdd p105_hvt m=1 w=800e-9 l=30e-9 ad=10.5e-15 as=10.5e-15 pd=310e-9 ps=310e-9
.ends 
*  End of subcircuit definition.
*  Library name: saed32nm_hvt
*  Cell name: OR2X1_HVT
*  View name: schematic
.subckt or2x1_hvt a1 a2 vdd vss y
    xmn2 sa1 a2 vss vss n105_hvt m=1 w=210e-9 l=30e-9 ad=10.5e-15 as=10.5e-15 pd=310e-9 ps=310e-9
    xmn1 sa1 a1 vss vss n105_hvt m=1 w=210e-9 l=30e-9 ad=10.5e-15 as=10.5e-15 pd=310e-9 ps=310e-9
    xmn0 y sa1 vss vss n105_hvt m=1 w=420e-9 l=30e-9 ad=10.5e-15 as=10.5e-15 pd=310e-9 ps=310e-9
    xmp2 sa1 a2 net126 vdd p105_hvt m=1 w=800e-9 l=30e-9 ad=10.5e-15 as=10.5e-15 pd=310e-9 ps=310e-9
    xmp1 net126 a1 vdd vdd p105_hvt m=1 w=800e-9 l=30e-9 ad=10.5e-15 as=10.5e-15 pd=310e-9 ps=310e-9
    xmp0 y sa1 vdd vdd p105_hvt m=1 w=800e-9 l=30e-9 ad=10.5e-15 as=10.5e-15 pd=310e-9 ps=310e-9
.ends 
*  End of subcircuit definition.
*  Library name: phase2_v
*  Cell name: counter_mem_address
*  View name: schematic
.subckt counter_mem_address count<5> count<4> count<3> count<2> count<1> count<0> enable clk reset_bar vss vdd! in0
    xclk_gate_count_reg clk enable net951 vss vss vdd! snps_clock_gate_high_counter_mem_address
    xu19 count<4> n13 vdd! vss n14 nand2x0_hvt
    xu10 n5 n10 vdd! vss n6 nand2x0_hvt
    xu12 count<1> n6 vdd! vss n7 nand2x0_hvt
    xu8 in0 count<1> count<4> n15 vdd! vss n4 nand4x0_hvt
    xu15 count<2> count<1> count<0> in0 vdd! vss n11 nand4x0_hvt
    xu11 n6 vdd! vss _net0 invx0_hvt
    xu17 n11 vdd! vss n13 invx0_hvt
    xcount_reg_0_ net951 _net0 count<0> n5 reset_bar vdd! vss dffarx2_hvt
    xcount_reg_1_ net951 n12 count<1> nett_127 reset_bar vdd! vss dffarx2_hvt
    xu13 count<1> count<0> n7 vdd! vss n12 oa21x1_hvt
    xu9 count<2> count<0> n4 vdd! vss n10 or3x1_hvt
    xcount_reg_3_ net951 _net1 count<3> nett_128 reset_bar vdd! vss dffarx1_hvt
    xcount_reg_5_ net951 n16 count<5> n15 reset_bar vdd! vss dffarx1_hvt
    xcount_reg_2_ net951 _net2 _net3 n8 reset_bar vdd! vss dffarx1_hvt
    xcount_reg_4_ net951 _net4 count<4> _net5 reset_bar vdd! vss dffarx1_hvt
    xu18 count<4> n13 _net5 n11 n10 vdd! vss _net4 oa221x1_hvt
    xu14 count<2> count<1> count<2> count<0> n8 n7 vdd! vss _net2 oa222x1_hvt
    xicc_route_opt3 _net3 vdd! vss count<2> nbuffx2_hvt
    xu20 n15 n14 nett_129 n16 vdd! vss haddx1_hvt
    xu4 n10 n11 vdd! vss n1 and2x1_hvt
    xu6 n1 n2 vdd! vss _net1 and2x1_hvt
    xu16 count<2> count<1> count<0> vdd! vss n9 and3x1_hvt
    xu5 n9 in0 vdd! vss n2 or2x1_hvt
.ends 
*  End of subcircuit definition.
*  Library name: saed32nm_hvt
*  Cell name: INVX8_HVT
*  View name: schematic
.subckt invx8_hvt a vdd vss y
    xmp y a vdd vdd p105_hvt m=8 w=800e-9 l=30e-9 ad=10.5e-15 as=10.5e-15 pd=310e-9 ps=310e-9
    xmn y a vss vss n105_hvt m=8 w=420e-9 l=30e-9 ad=10.5e-15 as=10.5e-15 pd=310e-9 ps=310e-9
.ends 
*  End of subcircuit definition.
*  Library name: saed32nm_hvt
*  Cell name: NBUFFX32_HVT
*  View name: schematic
.subckt nbuffx32_hvt a vdd vss y
    xmp2 y an vdd vdd p105_hvt m=32 w=800e-9 l=30e-9 ad=10.5e-15 as=10.5e-15 pd=310e-9 ps=310e-9
    xmp1 an a vdd vdd p105_hvt m=5 w=800e-9 l=30e-9 ad=10.5e-15 as=10.5e-15 pd=310e-9 ps=310e-9
    xmn2 y an vss vss n105_hvt m=32 w=420e-9 l=30e-9 ad=10.5e-15 as=10.5e-15 pd=310e-9 ps=310e-9
    xmn1 an a vss vss n105_hvt m=5 w=420e-9 l=30e-9 ad=10.5e-15 as=10.5e-15 pd=310e-9 ps=310e-9
.ends 
*  End of subcircuit definition.
*  Library name: saed32nm_hvt
*  Cell name: FADDX1_HVT
*  View name: schematic
.subckt faddx1_hvt a b ci co s vdd vss
    xmp10 net598 a vdd vdd p105_hvt m=1 w=620e-9 l=30e-9 ad=10.5e-15 as=10.5e-15 pd=310e-9 ps=310e-9
    xmp11 net600 b net598 vdd p105_hvt m=1 w=620e-9 l=30e-9 ad=10.5e-15 as=10.5e-15 pd=310e-9 ps=310e-9
    xmp12 net607 ci net600 vdd p105_hvt m=1 w=620e-9 l=30e-9 ad=10.5e-15 as=10.5e-15 pd=310e-9 ps=310e-9
    xmp13 s net607 vdd vdd p105_hvt m=1 w=800e-9 l=30e-9 ad=10.5e-15 as=10.5e-15 pd=310e-9 ps=310e-9
    xmp14 co net609 vdd vdd p105_hvt m=1 w=800e-9 l=30e-9 ad=10.5e-15 as=10.5e-15 pd=310e-9 ps=310e-9
    xmp5 net609 b net576 vdd p105_hvt m=1 w=620e-9 l=30e-9 ad=10.5e-15 as=10.5e-15 pd=310e-9 ps=310e-9
    xmp4 net576 a vdd vdd p105_hvt m=1 w=620e-9 l=30e-9 ad=10.5e-15 as=10.5e-15 pd=310e-9 ps=310e-9
    xmp9 net607 net609 net589 vdd p105_hvt m=1 w=620e-9 l=30e-9 ad=10.5e-15 as=10.5e-15 pd=310e-9 ps=310e-9
    xmp6 net589 ci vdd vdd p105_hvt m=1 w=620e-9 l=30e-9 ad=10.5e-15 as=10.5e-15 pd=310e-9 ps=310e-9
    xmp3 net609 ci net572 vdd p105_hvt m=1 w=620e-9 l=30e-9 ad=10.5e-15 as=10.5e-15 pd=310e-9 ps=310e-9