*  Generated for: HSPICE
*  Generated on: Apr 27 15:52:39 2014
*  Design library name: phase2
*  Design cell name: neo_v2_tb
*  Design view name: schematic
.global vdd!
.temp 25.0
.option ARTIST=2 PSF=2 WARN_SEP=1
.option LIS_NEW=1 
.lib '/home/ff/ee241/synopsys-32nm/hspice/saed32nm.lib' TT
*  Library name: saed32nm_hvt
*  Cell name: NAND2X0_HVT
*  View name: schematic
.subckt nand2x0_hvt a1 a2 vdd vss y
    xmp2 y a2 vdd vdd p105_hvt m=1 w=300e-9 l=30e-9 ad=10.5e-15 as=10.5e-15 pd=310e-9 ps=310e-9
    xmp1 y a1 vdd vdd p105_hvt m=1 w=300e-9 l=30e-9 ad=10.5e-15 as=10.5e-15 pd=310e-9 ps=310e-9
    xmn1 y a1 sa1 vss n105_hvt m=1 w=320e-9 l=30e-9 ad=10.5e-15 as=10.5e-15 pd=310e-9 ps=310e-9
    xmn2 sa1 a2 vss vss n105_hvt m=1 w=320e-9 l=30e-9 ad=10.5e-15 as=10.5e-15 pd=310e-9 ps=310e-9
.ends 
*  End of subcircuit definition.
*  Library name: saed32nm_hvt
*  Cell name: AND2X1_HVT
*  View name: schematic
.subckt and2x1_hvt a1 a2 vdd vss y
    xmn1 y1 a1 sa1 vss n105_hvt m=1 w=420e-9 l=30e-9 ad=10.5e-15 as=10.5e-15 pd=310e-9 ps=310e-9
    xmn2 sa1 a2 vss vss n105_hvt m=1 w=420e-9 l=30e-9 ad=10.5e-15 as=10.5e-15 pd=310e-9 ps=310e-9
    xmn3 y y1 vss vss n105_hvt m=1 w=420e-9 l=30e-9 ad=10.5e-15 as=10.5e-15 pd=310e-9 ps=310e-9
    xmp2 y1 a2 vdd vdd p105_hvt m=1 w=390e-9 l=30e-9 ad=10.5e-15 as=10.5e-15 pd=310e-9 ps=310e-9
    xmp1 y1 a1 vdd vdd p105_hvt m=1 w=390e-9 l=30e-9 ad=10.5e-15 as=10.5e-15 pd=310e-9 ps=310e-9
    xmp3 y y1 vdd vdd p105_hvt m=1 w=800e-9 l=30e-9 ad=10.5e-15 as=10.5e-15 pd=310e-9 ps=310e-9
.ends 
*  End of subcircuit definition.
*  Library name: saed32nm_hvt
*  Cell name: HADDX1_HVT
*  View name: schematic
.subckt haddx1_hvt a0 b0 c1 so vdd vss
    xmn4 net292 b0 net287 vss n105_hvt m=1 w=420e-9 l=30e-9 ad=10.5e-15 as=10.5e-15 pd=310e-9 ps=310e-9
    xmn5 net287 a0 vss vss n105_hvt m=1 w=420e-9 l=30e-9 ad=10.5e-15 as=10.5e-15 pd=310e-9 ps=310e-9
    xmn7 c1 net292 vss vss n105_hvt m=1 w=420e-9 l=30e-9 ad=10.5e-15 as=10.5e-15 pd=310e-9 ps=310e-9
    xmn6 so net295 vss vss n105_hvt m=1 w=420e-9 l=30e-9 ad=10.5e-15 as=10.5e-15 pd=310e-9 ps=310e-9
    xmn3 net289 net292 vss vss n105_hvt m=1 w=420e-9 l=30e-9 ad=10.5e-15 as=10.5e-15 pd=310e-9 ps=310e-9
    xmn1 net295 a0 net289 vss n105_hvt m=1 w=420e-9 l=30e-9 ad=10.5e-15 as=10.5e-15 pd=310e-9 ps=310e-9
    xmn2 net295 b0 net289 vss n105_hvt m=1 w=420e-9 l=30e-9 ad=10.5e-15 as=10.5e-15 pd=310e-9 ps=310e-9
    xmp7 c1 net292 vdd vdd p105_hvt m=1 w=800e-9 l=30e-9 ad=10.5e-15 as=10.5e-15 pd=310e-9 ps=310e-9
    xmp6 so net295 vdd vdd p105_hvt m=1 w=800e-9 l=30e-9 ad=10.5e-15 as=10.5e-15 pd=310e-9 ps=310e-9
    xmp2 net295 b0 net288 vdd p105_hvt m=1 w=450e-9 l=30e-9 ad=10.5e-15 as=10.5e-15 pd=310e-9 ps=310e-9
    xmp1 net288 a0 vdd vdd p105_hvt m=1 w=450e-9 l=30e-9 ad=10.5e-15 as=10.5e-15 pd=310e-9 ps=310e-9
    xmp5 net292 b0 vdd vdd p105_hvt m=1 w=420e-9 l=30e-9 ad=10.5e-15 as=10.5e-15 pd=310e-9 ps=310e-9
    xmp4 net292 a0 vdd vdd p105_hvt m=1 w=420e-9 l=30e-9 ad=10.5e-15 as=10.5e-15 pd=310e-9 ps=310e-9
    xmp3 net295 net292 vdd vdd p105_hvt m=1 w=450e-9 l=30e-9 ad=10.5e-15 as=10.5e-15 pd=310e-9 ps=310e-9
.ends 
*  End of subcircuit definition.
*  Library name: saed32nm_hvt
*  Cell name: FADDX1_HVT
*  View name: schematic
.subckt faddx1_hvt a b ci co s vdd vss
    xmp10 net598 a vdd vdd p105_hvt m=1 w=620e-9 l=30e-9 ad=10.5e-15 as=10.5e-15 pd=310e-9 ps=310e-9
    xmp11 net600 b net598 vdd p105_hvt m=1 w=620e-9 l=30e-9 ad=10.5e-15 as=10.5e-15 pd=310e-9 ps=310e-9
    xmp12 net607 ci net600 vdd p105_hvt m=1 w=620e-9 l=30e-9 ad=10.5e-15 as=10.5e-15 pd=310e-9 ps=310e-9
    xmp13 s net607 vdd vdd p105_hvt m=1 w=800e-9 l=30e-9 ad=10.5e-15 as=10.5e-15 pd=310e-9 ps=310e-9
    xmp14 co net609 vdd vdd p105_hvt m=1 w=800e-9 l=30e-9 ad=10.5e-15 as=10.5e-15 pd=310e-9 ps=310e-9
    xmp5 net609 b net576 vdd p105_hvt m=1 w=620e-9 l=30e-9 ad=10.5e-15 as=10.5e-15 pd=310e-9 ps=310e-9
    xmp4 net576 a vdd vdd p105_hvt m=1 w=620e-9 l=30e-9 ad=10.5e-15 as=10.5e-15 pd=310e-9 ps=310e-9
    xmp9 net607 net609 net589 vdd p105_hvt m=1 w=620e-9 l=30e-9 ad=10.5e-15 as=10.5e-15 pd=310e-9 ps=310e-9
    xmp6 net589 ci vdd vdd p105_hvt m=1 w=620e-9 l=30e-9 ad=10.5e-15 as=10.5e-15 pd=310e-9 ps=310e-9
    xmp3 net609 ci net572 vdd p105_hvt m=1 w=620e-9 l=30e-9 ad=10.5e-15 as=10.5e-15 pd=310e-9 ps=310e-9
    xmp7 net589 a vdd vdd p105_hvt m=1 w=620e-9 l=30e-9 ad=10.5e-15 as=10.5e-15 pd=310e-9 ps=310e-9
    xmp8 net589 b vdd vdd p105_hvt m=1 w=620e-9 l=30e-9 ad=10.5e-15 as=10.5e-15 pd=310e-9 ps=310e-9
    xmp1 net572 a vdd vdd p105_hvt m=1 w=620e-9 l=30e-9 ad=10.5e-15 as=10.5e-15 pd=310e-9 ps=310e-9
    xmp2 net572 b vdd vdd p105_hvt m=1 w=620e-9 l=30e-9 ad=10.5e-15 as=10.5e-15 pd=310e-9 ps=310e-9
    xmn11 net604 b net605 vss n105_hvt m=1 w=280e-9 l=30e-9 ad=10.5e-15 as=10.5e-15 pd=310e-9 ps=310e-9
    xmn10 net607 ci net604 vss n105_hvt m=1 w=280e-9 l=30e-9 ad=10.5e-15 as=10.5e-15 pd=310e-9 ps=310e-9
    xmn12 net605 a vss vss n105_hvt m=1 w=280e-9 l=30e-9 ad=10.5e-15 as=10.5e-15 pd=310e-9 ps=310e-9
    xmn5 net579 a vss vss n105_hvt m=1 w=280e-9 l=30e-9 ad=10.5e-15 as=10.5e-15 pd=310e-9 ps=310e-9
    xmn4 net609 b net579 vss n105_hvt m=1 w=280e-9 l=30e-9 ad=10.5e-15 as=10.5e-15 pd=310e-9 ps=310e-9
    xmn13 s net607 vss vss n105_hvt m=1 w=420e-9 l=30e-9 ad=10.5e-15 as=10.5e-15 pd=310e-9 ps=310e-9
    xmn14 co net609 vss vss n105_hvt m=1 w=420e-9 l=30e-9 ad=10.5e-15 as=10.5e-15 pd=310e-9 ps=310e-9
    xmn6 net595 ci vss vss n105_hvt m=1 w=280e-9 l=30e-9 ad=10.5e-15 as=10.5e-15 pd=310e-9 ps=310e-9
    xmn7 net595 a vss vss n105_hvt m=1 w=280e-9 l=30e-9 ad=10.5e-15 as=10.5e-15 pd=310e-9 ps=310e-9
    xmn8 net595 b vss vss n105_hvt m=1 w=280e-9 l=30e-9 ad=10.5e-15 as=10.5e-15 pd=310e-9 ps=310e-9
    xmn9 net607 net609 net595 vss n105_hvt m=1 w=280e-9 l=30e-9 ad=10.5e-15 as=10.5e-15 pd=310e-9 ps=310e-9
    xmn3 net573 b vss vss n105_hvt m=1 w=280e-9 l=30e-9 ad=10.5e-15 as=10.5e-15 pd=310e-9 ps=310e-9
    xmn1 net573 a vss vss n105_hvt m=1 w=280e-9 l=30e-9 ad=10.5e-15 as=10.5e-15 pd=310e-9 ps=310e-9
    xmn2 net609 ci net573 vss n105_hvt m=1 w=280e-9 l=30e-9 ad=10.5e-15 as=10.5e-15 pd=310e-9 ps=310e-9
.ends 
*  End of subcircuit definition.
*  Library name: saed32nm_hvt
*  Cell name: NAND3X0_HVT
*  View name: schematic
.subckt nand3x0_hvt a1 a2 a3 vdd vss y
    xmn3 sa2 a3 vss vss n105_hvt m=1 w=400e-9 l=30e-9 ad=10.5e-15 as=10.5e-15 pd=310e-9 ps=310e-9
    xmn1 y a1 sa1 vss n105_hvt m=1 w=400e-9 l=30e-9 ad=10.5e-15 as=10.5e-15 pd=310e-9 ps=310e-9
    xmn2 sa1 a2 sa2 vss n105_hvt m=1 w=400e-9 l=30e-9 ad=10.5e-15 as=10.5e-15 pd=310e-9 ps=310e-9
    xmp3 y a3 vdd vdd p105_hvt m=1 w=420e-9 l=30e-9 ad=10.5e-15 as=10.5e-15 pd=310e-9 ps=310e-9
    xmp1 y a1 vdd vdd p105_hvt m=1 w=420e-9 l=30e-9 ad=10.5e-15 as=10.5e-15 pd=310e-9 ps=310e-9
    xmp2 y a2 vdd vdd p105_hvt m=1 w=420e-9 l=30e-9 ad=10.5e-15 as=10.5e-15 pd=310e-9 ps=310e-9
.ends 
*  End of subcircuit definition.
*  Library name: saed32nm_hvt
*  Cell name: INVX0_HVT
*  View name: schematic
.subckt invx0_hvt a vdd vss y
    xmp y a vdd vdd p105_hvt m=1 w=520e-9 l=30e-9 ad=10.5e-15 as=10.5e-15 pd=310e-9 ps=310e-9
    xmn y a vss vss n105_hvt m=1 w=270e-9 l=30e-9 ad=10.5e-15 as=10.5e-15 pd=310e-9 ps=310e-9
.ends 
*  End of subcircuit definition.
*  Library name: saed32nm_hvt
*  Cell name: DFFARX1_HVT
*  View name: schematic
.subckt dffarx1_hvt clk d q qn rstb vdd vss
    xmp01 d1 d vdd vdd p105_hvt m=1 w=450e-9 l=30e-9 ad=10.5e-15 as=10.5e-15 pd=310e-9 ps=310e-9
    xmp10 fb4 clkp vdd vdd p105_hvt m=1 w=300e-9 l=30e-9 ad=10.5e-15 as=10.5e-15 pd=310e-9 ps=310e-9
    xmp11 d4 d5 fb4 vdd p105_hvt m=1 w=300e-9 l=30e-9 ad=10.5e-15 as=10.5e-15 pd=310e-9 ps=310e-9
    xmp14 qn d4 vdd vdd p105_hvt m=1 w=800e-9 l=30e-9 ad=10.5e-15 as=10.5e-15 pd=310e-9 ps=310e-9
    xmp13 q d5 vdd vdd p105_hvt m=1 w=800e-9 l=30e-9 ad=10.5e-15 as=10.5e-15 pd=310e-9 ps=310e-9
    xmpc1 clkn clk vdd vdd p105_hvt m=1 w=740e-9 l=30e-9 ad=10.5e-15 as=10.5e-15 pd=310e-9 ps=310e-9
    xmp1 d1 clkp d2 vdd p105_hvt m=1 w=400e-9 l=30e-9 ad=10.5e-15 as=10.5e-15 pd=310e-9 ps=310e-9
    xmpc2 clkp clkn vdd vdd p105_hvt m=1 w=740e-9 l=30e-9 ad=10.5e-15 as=10.5e-15 pd=310e-9 ps=310e-9
    xmp2 d3 d2 vdd vdd p105_hvt m=1 w=700e-9 l=30e-9 ad=10.5e-15 as=10.5e-15 pd=310e-9 ps=310e-9
    xmp8 vdd d4 d5 vdd p105_hvt m=1 w=520e-9 l=30e-9 ad=10.5e-15 as=10.5e-15 pd=310e-9 ps=310e-9
    xmp9 d5 rstb vdd vdd p105_hvt m=1 w=520e-9 l=30e-9 ad=10.5e-15 as=10.5e-15 pd=310e-9 ps=310e-9
    xmp7 d4 clkn d3 vdd p105_hvt m=1 w=400e-9 l=30e-9 ad=10.5e-15 as=10.5e-15 pd=310e-9 ps=310e-9
    xmp6 d2 d3 fb1 vdd p105_hvt m=1 w=300e-9 l=30e-9 ad=10.5e-15 as=10.5e-15 pd=310e-9 ps=310e-9
    xmp5 d2 rstb fb1 vdd p105_hvt m=1 w=300e-9 l=30e-9 ad=10.5e-15 as=10.5e-15 pd=310e-9 ps=310e-9
    xmp4 fb1 clkn vdd vdd p105_hvt m=1 w=300e-9 l=30e-9 ad=10.5e-15 as=10.5e-15 pd=310e-9 ps=310e-9
    xmn4 fb3 clkp vss vss n105_hvt m=1 w=300e-9 l=30e-9 ad=10.5e-15 as=10.5e-15 pd=310e-9 ps=310e-9
    xmn5 fb2 rstb fb3 vss n105_hvt m=1 w=300e-9 l=30e-9 ad=10.5e-15 as=10.5e-15 pd=310e-9 ps=310e-9
    xmn6 d2 d3 fb2 vss n105_hvt m=1 w=300e-9 l=30e-9 ad=10.5e-15 as=10.5e-15 pd=310e-9 ps=310e-9
    xmn01 d1 d vss vss n105_hvt m=1 w=420e-9 l=30e-9 ad=10.5e-15 as=10.5e-15 pd=310e-9 ps=310e-9
    xmn9 d5 rstb net294 vss n105_hvt m=1 w=350e-9 l=30e-9 ad=10.5e-15 as=10.5e-15 pd=310e-9 ps=310e-9
    xmn8 net294 d4 vss vss n105_hvt m=1 w=350e-9 l=30e-9 ad=10.5e-15 as=10.5e-15 pd=310e-9 ps=310e-9
    xmn14 qn d4 vss vss n105_hvt m=1 w=420e-9 l=30e-9 ad=10.5e-15 as=10.5e-15 pd=310e-9 ps=310e-9
    xmn11 d4 d5 fb5 vss n105_hvt m=1 w=300e-9 l=30e-9 ad=10.5e-15 as=10.5e-15 pd=310e-9 ps=310e-9
    xmn10 fb5 clkn vss vss n105_hvt m=1 w=300e-9 l=30e-9 ad=10.5e-15 as=10.5e-15 pd=310e-9 ps=310e-9
    xmn13 q d5 vss vss n105_hvt m=1 w=420e-9 l=30e-9 ad=10.5e-15 as=10.5e-15 pd=310e-9 ps=310e-9
    xmnc1 clkn clk vss vss n105_hvt m=1 w=400e-9 l=30e-9 ad=10.5e-15 as=10.5e-15 pd=310e-9 ps=310e-9
    xmn1 d1 clkn d2 vss n105_hvt m=1 w=300e-9 l=30e-9 ad=10.5e-15 as=10.5e-15 pd=310e-9 ps=310e-9
    xmnc2 clkp clkn vss vss n105_hvt m=1 w=400e-9 l=30e-9 ad=10.5e-15 as=10.5e-15 pd=310e-9 ps=310e-9
    xmn2 d3 d2 vss vss n105_hvt m=1 w=350e-9 l=30e-9 ad=10.5e-15 as=10.5e-15 pd=310e-9 ps=310e-9
    xmn7 d4 clkp d3 vss n105_hvt m=1 w=300e-9 l=30e-9 ad=10.5e-15 as=10.5e-15 pd=310e-9 ps=310e-9
.ends 
*  End of subcircuit definition.
*  Library name: saed32nm_hvt
*  Cell name: OR2X1_HVT
*  View name: schematic
.subckt or2x1_hvt a1 a2 vdd vss y
    xmn2 sa1 a2 vss vss n105_hvt m=1 w=210e-9 l=30e-9 ad=10.5e-15 as=10.5e-15 pd=310e-9 ps=310e-9
    xmn1 sa1 a1 vss vss n105_hvt m=1 w=210e-9 l=30e-9 ad=10.5e-15 as=10.5e-15 pd=310e-9 ps=310e-9
    xmn0 y sa1 vss vss n105_hvt m=1 w=420e-9 l=30e-9 ad=10.5e-15 as=10.5e-15 pd=310e-9 ps=310e-9
    xmp2 sa1 a2 net126 vdd p105_hvt m=1 w=800e-9 l=30e-9 ad=10.5e-15 as=10.5e-15 pd=310e-9 ps=310e-9
    xmp1 net126 a1 vdd vdd p105_hvt m=1 w=800e-9 l=30e-9 ad=10.5e-15 as=10.5e-15 pd=310e-9 ps=310e-9
    xmp0 y sa1 vdd vdd p105_hvt m=1 w=800e-9 l=30e-9 ad=10.5e-15 as=10.5e-15 pd=310e-9 ps=310e-9
.ends 
*  End of subcircuit definition.
*  Library name: saed32nm_hvt
*  Cell name: OA21X1_HVT
*  View name: schematic
.subckt oa21x1_hvt a1 a2 a3 vdd vss y
    xmp2 net6 a2 net1 vdd p105_hvt m=1 w=550e-9 l=30e-9 ad=10.5e-15 as=10.5e-15 pd=310e-9 ps=310e-9
    xmp1 net1 a1 vdd vdd p105_hvt m=1 w=550e-9 l=30e-9 ad=10.5e-15 as=10.5e-15 pd=310e-9 ps=310e-9
    xmp3 net6 a3 vdd vdd p105_hvt m=1 w=250e-9 l=30e-9 ad=10.5e-15 as=10.5e-15 pd=310e-9 ps=310e-9
    xmp7 y net6 vdd vdd p105_hvt m=1 w=800e-9 l=30e-9 ad=10.5e-15 as=10.5e-15 pd=310e-9 ps=310e-9
    xmn2 net2 a2 vss vss n105_hvt m=1 w=350e-9 l=30e-9 ad=10.5e-15 as=10.5e-15 pd=310e-9 ps=310e-9
    xmn1 net2 a1 vss vss n105_hvt m=1 w=350e-9 l=30e-9 ad=10.5e-15 as=10.5e-15 pd=310e-9 ps=310e-9
    xmn3 net6 a3 net2 vss n105_hvt m=1 w=200e-9 l=30e-9 ad=10.5e-15 as=10.5e-15 pd=310e-9 ps=310e-9
    xmn7 y net6 vss vss n105_hvt m=1 w=420e-9 l=30e-9 ad=10.5e-15 as=10.5e-15 pd=310e-9 ps=310e-9
.ends 
*  End of subcircuit definition.
*  Library name: saed32nm_hvt
*  Cell name: NBUFFX2_HVT
*  View name: schematic
.subckt nbuffx2_hvt a vdd vss y
    xmp2 y an vdd vdd p105_hvt m=2 w=800e-9 l=30e-9 ad=10.5e-15 as=10.5e-15 pd=310e-9 ps=310e-9
    xmp1 an a vdd vdd p105_hvt m=1 w=520e-9 l=30e-9 ad=10.5e-15 as=10.5e-15 pd=310e-9 ps=310e-9
    xmn2 y an vss vss n105_hvt m=2 w=420e-9 l=30e-9 ad=10.5e-15 as=10.5e-15 pd=310e-9 ps=310e-9
    xmn1 an a vss vss n105_hvt m=1 w=270e-9 l=30e-9 ad=10.5e-15 as=10.5e-15 pd=310e-9 ps=310e-9
.ends 
*  End of subcircuit definition.
*  Library name: saed32nm_hvt
*  Cell name: OAI221X1_HVT
*  View name: schematic
.subckt oai221x1_hvt a1 a2 a3 a4 a5 vdd vss y
    xmn4 net4 a4 net2 vss n105_hvt m=1 w=350e-9 l=30e-9 ad=10.5e-15 as=10.5e-15 pd=310e-9 ps=310e-9
    xmn3 net4 a3 net2 vss n105_hvt m=1 w=350e-9 l=30e-9 ad=10.5e-15 as=10.5e-15 pd=310e-9 ps=310e-9
    xmn1 net2 a1 vss vss n105_hvt m=1 w=350e-9 l=30e-9 ad=10.5e-15 as=10.5e-15 pd=310e-9 ps=310e-9
    xmn2 net2 a2 vss vss n105_hvt m=1 w=350e-9 l=30e-9 ad=10.5e-15 as=10.5e-15 pd=310e-9 ps=310e-9
    xmn5 net6 a5 net4 vss n105_hvt m=1 w=350e-9 l=30e-9 ad=10.5e-15 as=10.5e-15 pd=310e-9 ps=310e-9
    xmn8 y net7 vss vss n105_hvt m=1 w=420e-9 l=30e-9 ad=10.5e-15 as=10.5e-15 pd=310e-9 ps=310e-9
    xmn7 net7 net6 vss vss n105_hvt m=1 w=350e-9 l=30e-9 ad=10.5e-15 as=10.5e-15 pd=310e-9 ps=310e-9
    xmp4 net6 a4 net3 vdd p105_hvt m=1 w=390e-9 l=30e-9 ad=10.5e-15 as=10.5e-15 pd=310e-9 ps=310e-9
    xmp3 net3 a3 vdd vdd p105_hvt m=1 w=390e-9 l=30e-9 ad=10.5e-15 as=10.5e-15 pd=310e-9 ps=310e-9
    xmp2 net6 a2 net1 vdd p105_hvt m=1 w=390e-9 l=30e-9 ad=10.5e-15 as=10.5e-15 pd=310e-9 ps=310e-9
    xmp1 net1 a1 vdd vdd p105_hvt m=1 w=390e-9 l=30e-9 ad=10.5e-15 as=10.5e-15 pd=310e-9 ps=310e-9
    xmp5 net6 a5 vdd vdd p105_hvt m=1 w=190e-9 l=30e-9 ad=10.5e-15 as=10.5e-15 pd=310e-9 ps=310e-9
    xmp8 y net7 vdd vdd p105_hvt m=1 w=800e-9 l=30e-9 ad=10.5e-15 as=10.5e-15 pd=310e-9 ps=310e-9
    xmp7 net7 net6 vdd vdd p105_hvt m=1 w=540e-9 l=30e-9 ad=10.5e-15 as=10.5e-15 pd=310e-9 ps=310e-9
.ends 
*  End of subcircuit definition.
*  Library name: saed32nm_hvt
*  Cell name: AO221X1_HVT
*  View name: schematic
.subckt ao221x1_hvt a1 a2 a3 a4 a5 vdd vss y
    xmp2 net1 a1 vdd vdd p105_hvt m=1 w=580e-9 l=30e-9 ad=10.5e-15 as=10.5e-15 pd=310e-9 ps=310e-9
    xmp1 net1 a2 vdd vdd p105_hvt m=1 w=580e-9 l=30e-9 ad=10.5e-15 as=10.5e-15 pd=310e-9 ps=310e-9
    xmp4 net3 a3 net1 vdd p105_hvt m=1 w=580e-9 l=30e-9 ad=10.5e-15 as=10.5e-15 pd=310e-9 ps=310e-9
    xmp3 net3 a4 net1 vdd p105_hvt m=1 w=580e-9 l=30e-9 ad=10.5e-15 as=10.5e-15 pd=310e-9 ps=310e-9
    xmp5 net5 a5 net3 vdd p105_hvt m=1 w=580e-9 l=30e-9 ad=10.5e-15 as=10.5e-15 pd=310e-9 ps=310e-9
    xmp6 y net5 vdd vdd p105_hvt m=1 w=800e-9 l=30e-9 ad=10.5e-15 as=10.5e-15 pd=310e-9 ps=310e-9
    xmn2 net5 a1 net2 vss n105_hvt m=1 w=250e-9 l=30e-9 ad=10.5e-15 as=10.5e-15 pd=310e-9 ps=310e-9
    xmn1 net2 a2 vss vss n105_hvt m=1 w=250e-9 l=30e-9 ad=10.5e-15 as=10.5e-15 pd=310e-9 ps=310e-9
    xmn4 net5 a3 net4 vss n105_hvt m=1 w=250e-9 l=30e-9 ad=10.5e-15 as=10.5e-15 pd=310e-9 ps=310e-9
    xmn3 net4 a4 vss vss n105_hvt m=1 w=250e-9 l=30e-9 ad=10.5e-15 as=10.5e-15 pd=310e-9 ps=310e-9
    xmn5 net5 a5 vss vss n105_hvt m=1 w=120e-9 l=30e-9 ad=10.5e-15 as=10.5e-15 pd=310e-9 ps=310e-9
    xmn6 y net5 vss vss n105_hvt m=1 w=420e-9 l=30e-9 ad=10.5e-15 as=10.5e-15 pd=310e-9 ps=310e-9
.ends 
*  End of subcircuit definition.
*  Library name: saed32nm_hvt
*  Cell name: DELLN2X2_HVT
*  View name: schematic
.subckt delln2x2_hvt a vdd vss y
    xmn2 sa2 sa1 net480 vss n105_hvt m=1 w=210e-9 l=30e-9 ad=10.5e-15 as=10.5e-15 pd=310e-9 ps=310e-9
    xmn3 net480 vdd net481 vss n105_hvt m=1 w=210e-9 l=30e-9 ad=10.5e-15 as=10.5e-15 pd=310e-9 ps=310e-9
    xmn4 net481 vdd vss vss n105_hvt m=1 w=210e-9 l=30e-9 ad=10.5e-15 as=10.5e-15 pd=310e-9 ps=310e-9
    xmn6 sa4 sa3 net470 vss n105_hvt m=1 w=170e-9 l=30e-9 ad=10.5e-15 as=10.5e-15 pd=310e-9 ps=310e-9
    xmn7 net470 vdd net471 vss n105_hvt m=1 w=170e-9 l=30e-9 ad=10.5e-15 as=10.5e-15 pd=310e-9 ps=310e-9
    xmn8 net471 vdd vss vss n105_hvt m=1 w=170e-9 l=30e-9 ad=10.5e-15 as=10.5e-15 pd=310e-9 ps=310e-9
    xmn10 sa6 sa5 net462 vss n105_hvt m=1 w=240e-9 l=30e-9 ad=10.5e-15 as=10.5e-15 pd=310e-9 ps=310e-9
    xmn11 net462 vdd net463 vss n105_hvt m=1 w=240e-9 l=30e-9 ad=10.5e-15 as=10.5e-15 pd=310e-9 ps=310e-9
    xmn12 net463 vdd vss vss n105_hvt m=1 w=240e-9 l=30e-9 ad=10.5e-15 as=10.5e-15 pd=310e-9 ps=310e-9
    xmn1 sa1 a vss vss n105_hvt m=1 w=120e-9 l=30e-9 ad=10.5e-15 as=10.5e-15 pd=310e-9 ps=310e-9
    xmn14 y sa7 vss vss n105_hvt m=2 w=420e-9 l=30e-9 ad=10.5e-15 as=10.5e-15 pd=310e-9 ps=310e-9
    xmn5 sa3 sa2 vss vss n105_hvt m=1 w=120e-9 l=30e-9 ad=10.5e-15 as=10.5e-15 pd=310e-9 ps=310e-9
    xmn9 sa5 sa4 vss vss n105_hvt m=1 w=110e-9 l=30e-9 ad=10.5e-15 as=10.5e-15 pd=310e-9 ps=310e-9
    xmn13 sa7 sa6 vss vss n105_hvt m=1 w=270e-9 l=30e-9 ad=10.5e-15 as=10.5e-15 pd=310e-9 ps=310e-9
    xmp3 net483 vss net482 vdd p105_hvt m=1 w=400e-9 l=30e-9 ad=10.5e-15 as=10.5e-15 pd=310e-9 ps=310e-9
    xmp2 sa2 sa1 net483 vdd p105_hvt m=1 w=400e-9 l=30e-9 ad=10.5e-15 as=10.5e-15 pd=310e-9 ps=310e-9
    xmp4 net482 vss vdd vdd p105_hvt m=1 w=400e-9 l=30e-9 ad=10.5e-15 as=10.5e-15 pd=310e-9 ps=310e-9
    xmp8 net466 vss vdd vdd p105_hvt m=1 w=320e-9 l=30e-9 ad=10.5e-15 as=10.5e-15 pd=310e-9 ps=310e-9
    xmp7 net467 vss net466 vdd p105_hvt m=1 w=320e-9 l=30e-9 ad=10.5e-15 as=10.5e-15 pd=310e-9 ps=310e-9
    xmp6 sa4 sa3 net467 vdd p105_hvt m=1 w=320e-9 l=30e-9 ad=10.5e-15 as=10.5e-15 pd=310e-9 ps=310e-9
    xmp12 net458 vss vdd vdd p105_hvt m=1 w=600e-9 l=30e-9 ad=10.5e-15 as=10.5e-15 pd=310e-9 ps=310e-9
    xmp11 net459 vss net458 vdd p105_hvt m=1 w=600e-9 l=30e-9 ad=10.5e-15 as=10.5e-15 pd=310e-9 ps=310e-9
    xmp10 sa6 sa5 net459 vdd p105_hvt m=1 w=600e-9 l=30e-9 ad=10.5e-15 as=10.5e-15 pd=310e-9 ps=310e-9
    xmp1 sa1 a vdd vdd p105_hvt m=1 w=220e-9 l=30e-9 ad=10.5e-15 as=10.5e-15 pd=310e-9 ps=310e-9
    xmp14 y sa7 vdd vdd p105_hvt m=2 w=800e-9 l=30e-9 ad=10.5e-15 as=10.5e-15 pd=310e-9 ps=310e-9
    xmp5 sa3 sa2 vdd vdd p105_hvt m=1 w=230e-9 l=30e-9 ad=10.5e-15 as=10.5e-15 pd=310e-9 ps=310e-9
    xmp9 sa5 sa4 vdd vdd p105_hvt m=1 w=210e-9 l=30e-9 ad=10.5e-15 as=10.5e-15 pd=310e-9 ps=310e-9
    xmp13 sa7 sa6 vdd vdd p105_hvt m=1 w=520e-9 l=30e-9 ad=10.5e-15 as=10.5e-15 pd=310e-9 ps=310e-9
.ends 
*  End of subcircuit definition.
*  Library name: saed32nm_hvt
*  Cell name: INVX4_HVT
*  View name: schematic
.subckt invx4_hvt a vdd vss y
    xmp y a vdd vdd p105_hvt m=4 w=800e-9 l=30e-9 ad=10.5e-15 as=10.5e-15 pd=310e-9 ps=310e-9
    xmn y a vss vss n105_hvt m=4 w=420e-9 l=30e-9 ad=10.5e-15 as=10.5e-15 pd=310e-9 ps=310e-9
.ends 
*  End of subcircuit definition.
*  Library name: saed32nm_hvt
*  Cell name: XOR2X1_HVT
*  View name: schematic
.subckt xor2x1_hvt a1 a2 vdd vss y
    xmn7 y y1 vss vss n105_hvt m=1 w=420e-9 l=30e-9 ad=10.5e-15 as=10.5e-15 pd=310e-9 ps=310e-9
    xmn4 sa2 a2b vss vss n105_hvt m=1 w=230e-9 l=30e-9 ad=10.5e-15 as=10.5e-15 pd=310e-9 ps=310e-9
    xmn3 y1 a1 sa2 vss n105_hvt m=1 w=230e-9 l=30e-9 ad=10.5e-15 as=10.5e-15 pd=310e-9 ps=310e-9
    xmn5 y1 a1b sa4 vss n105_hvt m=1 w=270e-9 l=30e-9 ad=10.5e-15 as=10.5e-15 pd=310e-9 ps=310e-9
    xmn6 sa4 a2 vss vss n105_hvt m=1 w=270e-9 l=30e-9 ad=10.5e-15 as=10.5e-15 pd=310e-9 ps=310e-9
    xmn2 a2b a2 vss vss n105_hvt m=1 w=210e-9 l=30e-9 ad=10.5e-15 as=10.5e-15 pd=310e-9 ps=310e-9
    xmn1 a1b a1 vss vss n105_hvt m=1 w=200e-9 l=30e-9 ad=10.5e-15 as=10.5e-15 pd=310e-9 ps=310e-9
    xmp6 y1 a1b sa3 vdd p105_hvt m=1 w=400e-9 l=30e-9 ad=10.5e-15 as=10.5e-15 pd=310e-9 ps=310e-9
    xmp5 sa3 a2b vdd vdd p105_hvt m=1 w=400e-9 l=30e-9 ad=10.5e-15 as=10.5e-15 pd=310e-9 ps=310e-9
    xmp7 y y1 vdd vdd p105_hvt m=1 w=750e-9 l=30e-9 ad=10.5e-15 as=10.5e-15 pd=310e-9 ps=310e-9
    xmp4 y1 a1 sa1 vdd p105_hvt m=1 w=330e-9 l=30e-9 ad=10.5e-15 as=10.5e-15 pd=310e-9 ps=310e-9
    xmp3 sa1 a2 vdd vdd p105_hvt m=1 w=330e-9 l=30e-9 ad=10.5e-15 as=10.5e-15 pd=310e-9 ps=310e-9
    xmp2 a2b a2 vdd vdd p105_hvt m=1 w=330e-9 l=30e-9 ad=10.5e-15 as=10.5e-15 pd=310e-9 ps=310e-9
    xmp1 a1b a1 vdd vdd p105_hvt m=1 w=360e-9 l=30e-9 ad=10.5e-15 as=10.5e-15 pd=310e-9 ps=310e-9
.ends 
*  End of subcircuit definition.
*  Library name: saed32nm_hvt
*  Cell name: OAI21X1_HVT
*  View name: schematic
.subckt oai21x1_hvt a1 a2 a3 vdd vss y
    xmn2 net2 a2 vss vss n105_hvt m=1 w=360e-9 l=30e-9 ad=10.5e-15 as=10.5e-15 pd=310e-9 ps=310e-9
    xmn1 net2 a1 vss vss n105_hvt m=1 w=360e-9 l=30e-9 ad=10.5e-15 as=10.5e-15 pd=310e-9 ps=310e-9
    xmn3 net6 a3 net2 vss n105_hvt m=1 w=200e-9 l=30e-9 ad=10.5e-15 as=10.5e-15 pd=310e-9 ps=310e-9
    xmn8 y net7 vss vss n105_hvt m=1 w=420e-9 l=30e-9 ad=10.5e-15 as=10.5e-15 pd=310e-9 ps=310e-9
    xmn7 net7 net6 vss vss n105_hvt m=1 w=100e-9 l=30e-9 ad=10.5e-15 as=10.5e-15 pd=310e-9 ps=310e-9
    xmp2 net6 a2 net1 vdd p105_hvt m=1 w=460e-9 l=30e-9 ad=10.5e-15 as=10.5e-15 pd=310e-9 ps=310e-9
    xmp1 net1 a1 vdd vdd p105_hvt m=1 w=460e-9 l=30e-9 ad=10.5e-15 as=10.5e-15 pd=310e-9 ps=310e-9
    xmp3 net6 a3 vdd vdd p105_hvt m=1 w=260e-9 l=30e-9 ad=10.5e-15 as=10.5e-15 pd=310e-9 ps=310e-9
    xmp8 y net7 vdd vdd p105_hvt m=1 w=800e-9 l=30e-9 ad=10.5e-15 as=10.5e-15 pd=310e-9 ps=310e-9
    xmp7 net7 net6 vdd vdd p105_hvt m=1 w=170e-9 l=30e-9 ad=10.5e-15 as=10.5e-15 pd=310e-9 ps=310e-9
.ends 
*  End of subcircuit definition.
*  Library name: phase2
*  Cell name: neo_v2
*  View name: schematic
.subckt neo_v2 xn<9> xn<8> xn<7> xn<6> xn<5> xn<4> xn<3> xn<2> xn<1> xn<0> xn_1<9> xn_1<8> xn_1<7> xn_1<6> xn_1<5> xn_1<4> xn_1<3> xn_1<2> xn_1<1> xn_1<0> xn_2<9> xn_2<8> xn_2<7> xn_2<6> xn_2<5> xn_2<4> xn_2<3> xn_2<2> xn_2<1> xn_2<0> clk reset neo_out<18> neo_out<17> neo_out<16> neo_out<15> neo_out<14> neo_out<13> neo_out<12> neo_out<11> neo_out<10> neo_out<9> neo_out<8> neo_out<7> neo_out<6> neo_out<5> neo_out<4> neo_out<3> neo_out<2> neo_out<1> neo_out<0> vdd! vss
    xu288 n210 n211 vdd! vss n164 nand2x0_hvt
    xu273 n209 n213 vdd! vss n161 nand2x0_hvt
    xu278 n212 n213 vdd! vss n159 nand2x0_hvt
    xu253 n214 n215 vdd! vss n142 nand2x0_hvt
    xu254 n209 n218 vdd! vss n141 nand2x0_hvt
    xu302 n236 n208 vdd! vss n175 nand2x0_hvt
    xu304 n226 n225 vdd! vss n174 nand2x0_hvt
    xu282 n227 n200 vdd! vss intadd_1_a_0_ nand2x0_hvt
    xu268 n227 n202 vdd! vss n163 nand2x0_hvt
    xu127 xn_1<8> n213 vdd! vss intadd_13_b_0_ nand2x0_hvt
    xu128 n215 n222 vdd! vss intadd_13_ci nand2x0_hvt
    xu125 n236 n202 vdd! vss intadd_13_a_1_ nand2x0_hvt
    xu120 n233 n206 vdd! vss intadd_5_b_1_ nand2x0_hvt
    xu147 n202 n235 vdd! vss intadd_10_b_1_ nand2x0_hvt
    xu138 n204 n234 vdd! vss intadd_6_b_1_ nand2x0_hvt
    xu137 n232 n206 vdd! vss intadd_6_a_1_ nand2x0_hvt
    xu199 n201 n233 vdd! vss intadd_4_a_1_ nand2x0_hvt
    xu200 n228 n206 vdd! vss intadd_4_b_1_ nand2x0_hvt
    xu103 xn_1<8> n217 vdd! vss intadd_18_b_0_ nand2x0_hvt
    xu104 n218 n222 vdd! vss intadd_18_ci nand2x0_hvt
    xu82 n236 n205 vdd! vss n44 nand2x0_hvt
    xu86 n22 n222 vdd! vss n42 nand2x0_hvt
    xu107 n221 n222 vdd! vss n41 nand2x0_hvt
    xu80 n208 n233 vdd! vss n29 nand2x0_hvt
    xu81 n241 n220 vdd! vss n28 nand2x0_hvt
    xu180 n201 n234 vdd! vss intadd_3_b_1_ nand2x0_hvt
    xu160 n230 n206 vdd! vss intadd_2_a_1_ nand2x0_hvt
    xu193 n231 n204 vdd! vss n119 nand2x0_hvt
    xu235 n211 n217 vdd! vss n149 nand2x0_hvt
    xu261 n227 n203 vdd! vss intadd_12_a_0_ nand2x0_hvt
    xu89 n234 n207 vdd! vss intadd_7_b_1_ nand2x0_hvt
    xu94 n236 n206 vdd! vss n36 nand2x0_hvt
    xu95 n208 n234 vdd! vss n35 nand2x0_hvt
    xu98 n236 n207 vdd! vss n170 nand2x0_hvt
    xu97 n208 n235 vdd! vss n171 nand2x0_hvt
    xu100 n34 n241 vdd! vss n168 nand2x0_hvt
    xu131 n219 n220 vdd! vss n51 nand2x0_hvt
    xu108 n226 n217 vdd! vss n40 nand2x0_hvt
    xu76 n223 n241 vdd! vss n21 nand2x0_hvt
    xu77 n226 n220 vdd! vss n20 nand2x0_hvt
    xu161 n228 n207 vdd! vss intadd_2_b_1_ nand2x0_hvt
    xu115 n226 n213 vdd! vss n50 nand2x0_hvt
    xu142 n226 n209 vdd! vss n65 nand2x0_hvt
    xu202 n227 n206 vdd! vss n130 nand2x0_hvt
    xu228 n227 n205 vdd! vss n151 nand2x0_hvt
    xu270 n228 n202 vdd! vss intadd_14_b_0_ and2x1_hvt
    xu271 n201 n229 vdd! vss intadd_14_ci and2x1_hvt
    xu250 n199 n232 vdd! vss n156 and2x1_hvt
    xu251 n228 n203 vdd! vss n155 and2x1_hvt
    xu285 n199 n228 vdd! vss intadd_1_b_0_ and2x1_hvt
    xu284 n199 n229 vdd! vss intadd_16_ci and2x1_hvt
    xu281 n228 n200 vdd! vss intadd_16_a_0_ and2x1_hvt
    xu272 n199 n230 vdd! vss n162 and2x1_hvt
    xu276 n229 n200 vdd! vss intadd_15_ci and2x1_hvt
    xu274 n201 n228 vdd! vss intadd_15_a_0_ and2x1_hvt
    xu264 n201 n230 vdd! vss intadd_12_a_1_ and2x1_hvt
    xu247 n209 n217 vdd! vss intadd_0_ci and2x1_hvt
    xu246 n211 n215 vdd! vss intadd_0_b_0_ and2x1_hvt
    xu265 n199 n231 vdd! vss intadd_12_b_0_ and2x1_hvt
    xu266 n200 n230 vdd! vss intadd_12_ci and2x1_hvt
    xu277 n209 n215 vdd! vss n160 and2x1_hvt
    xu275 n227 n201 vdd! vss intadd_15_b_0_ and2x1_hvt
    xu118 n204 n235 vdd! vss n56 and2x1_hvt
    xu119 n234 n205 vdd! vss n55 and2x1_hvt
    xu117 n232 n207 vdd! vss n57 and2x1_hvt
    xu113 n236 n203 vdd! vss n48 and2x1_hvt
    xu114 n208 n231 vdd! vss n47 and2x1_hvt
    xu133 n231 n207 vdd! vss n61 and2x1_hvt
    xu134 n203 n235 vdd! vss n60 and2x1_hvt
    xu126 n226 n211 vdd! vss intadd_13_a_0_ and2x1_hvt
    xu129 n233 n205 vdd! vss intadd_13_b_1_ and2x1_hvt
    xu151 n231 n206 vdd! vss n72 and2x1_hvt
    xu152 n233 n204 vdd! vss n71 and2x1_hvt
    xu153 n232 n205 vdd! vss n70 and2x1_hvt
    xu121 n217 n222 vdd! vss intadd_5_a_0_ and2x1_hvt
    xu122 n208 n230 vdd! vss intadd_5_b_0_ and2x1_hvt
    xu123 xn_1<8> n215 vdd! vss intadd_5_ci and2x1_hvt
    xu144 xn_1<8> n211 vdd! vss intadd_10_a_0_ and2x1_hvt
    xu145 n215 n220 vdd! vss intadd_10_b_0_ and2x1_hvt
    xu146 n213 n222 vdd! vss intadd_10_ci and2x1_hvt
    xu164 n231 n205 vdd! vss n84 and2x1_hvt
    xu165 n201 n235 vdd! vss n83 and2x1_hvt
    xu166 n232 n204 vdd! vss n88 and2x1_hvt
    xu167 n202 n234 vdd! vss n87 and2x1_hvt
    xu168 n203 n233 vdd! vss n86 and2x1_hvt
    xu139 n217 n220 vdd! vss intadd_6_a_0_ and2x1_hvt
    xu141 n236 n201 vdd! vss intadd_6_ci and2x1_hvt
    xu140 n208 n229 vdd! vss intadd_6_b_0_ and2x1_hvt
    xu185 n230 n205 vdd! vss n105 and2x1_hvt
    xu186 n202 n233 vdd! vss n104 and2x1_hvt
    xu187 n203 n232 vdd! vss n103 and2x1_hvt
    xu174 n236 n199 vdd! vss n101 and2x1_hvt
    xu175 n208 n227 vdd! vss n100 and2x1_hvt
    xu173 n211 n222 vdd! vss n102 and2x1_hvt
    xu201 n200 n234 vdd! vss n124 and2x1_hvt
    xu204 n199 n235 vdd! vss n122 and2x1_hvt
    xu207 n229 n205 vdd! vss intadd_17_a_0_ and2x1_hvt
    xu208 n202 n232 vdd! vss intadd_17_b_0_ and2x1_hvt
    xu209 n231 n203 vdd! vss intadd_17_ci and2x1_hvt
    xu242 n230 n202 vdd! vss n152 and2x1_hvt
    xu240 n229 n203 vdd! vss n154 and2x1_hvt
    xu241 n199 n233 vdd! vss n153 and2x1_hvt
    xu197 n209 n220 vdd! vss intadd_4_b_0_ and2x1_hvt
    xu198 n213 n217 vdd! vss intadd_4_ci and2x1_hvt
    xu196 n211 n218 vdd! vss intadd_4_a_0_ and2x1_hvt
    xu102 n226 n215 vdd! vss intadd_18_a_0_ and2x1_hvt
    xu106 n205 n235 vdd! vss intadd_18_b_1_ and2x1_hvt
    xu105 n233 n207 vdd! vss intadd_18_a_1_ and2x1_hvt
    xu83 n235 n206 vdd! vss n43 and2x1_hvt
    xu79 n226 n218 vdd! vss n30 and2x1_hvt
    xu110 n234 n206 vdd! vss n53 and2x1_hvt
    xu181 n200 n235 vdd! vss n113 and2x1_hvt
    xu182 n229 n206 vdd! vss n112 and2x1_hvt
    xu157 n213 n220 vdd! vss intadd_2_a_0_ and2x1_hvt
    xu158 xn_1<8> n209 vdd! vss intadd_2_b_0_ and2x1_hvt
    xu159 n215 n218 vdd! vss intadd_2_ci and2x1_hvt
    xu155 n236 n200 vdd! vss n79 and2x1_hvt
    xu156 n208 n228 vdd! vss n78 and2x1_hvt
    xu148 n230 n207 vdd! vss n69 and2x1_hvt
    xu150 n203 n234 vdd! vss n68 and2x1_hvt
    xu194 n215 n217 vdd! vss n115 and2x1_hvt
    xu195 n209 n222 vdd! vss n114 and2x1_hvt
    xu214 n230 n204 vdd! vss n127 and2x1_hvt
    xu178 n211 n220 vdd! vss intadd_3_b_0_ and2x1_hvt
    xu179 n213 n218 vdd! vss intadd_3_ci and2x1_hvt
    xu233 n202 n231 vdd! vss n148 and2x1_hvt
    xu234 n201 n231 vdd! vss n150 and2x1_hvt
    xu259 n200 n231 vdd! vss intadd_11_a_0_ and2x1_hvt
    xu260 n229 n202 vdd! vss intadd_11_b_0_ and2x1_hvt
    xu227 n230 n203 vdd! vss intadd_9_a_0_ and2x1_hvt
    xu230 n199 n234 vdd! vss intadd_9_ci and2x1_hvt
    xu226 n229 n204 vdd! vss n134 and2x1_hvt
    xu224 n200 n233 vdd! vss n136 and2x1_hvt
    xu225 n228 n205 vdd! vss n135 and2x1_hvt
    xu237 n200 n232 vdd! vss intadd_8_a_0_ and2x1_hvt
    xu238 n227 n204 vdd! vss intadd_0_a_0_ and2x1_hvt
    xu239 n228 n204 vdd! vss intadd_8_ci and2x1_hvt
    xu92 n236 n204 vdd! vss intadd_7_ci and2x1_hvt
    xu91 n208 n232 vdd! vss intadd_7_b_0_ and2x1_hvt
    xu90 n241 n218 vdd! vss intadd_7_a_0_ and2x1_hvt
    xu93 n235 n207 vdd! vss n37 and2x1_hvt
    xu96 n226 n222 vdd! vss n172 and2x1_hvt
    xu220 n201 n232 vdd! vss n129 and2x1_hvt
    xu149 n229 n207 vdd! vss n80 and2x1_hvt
    xu183 n227 n207 vdd! vss n116 and2x1_hvt
    xu289 intadd_15_b_0_ n164 nett_2806 intadd_1_b_1_ vdd! vss haddx1_hvt
    xu279 n160 n159 nett_2807 intadd_15_b_1_ vdd! vss haddx1_hvt
    xu255 n142 n141 nett_2808 intadd_0_b_1_ vdd! vss haddx1_hvt
    xu305 n175 n174 nett_2809 intadd_7_b_4_ vdd! vss haddx1_hvt
    xu132 n51 n50 nett_2810 n62 vdd! vss haddx1_hvt
    xu163 n65 n64 nett_2811 n85 vdd! vss haddx1_hvt
    xu78 n21 n20 nett_2812 n26 vdd! vss haddx1_hvt
    xu109 n41 n40 nett_2813 n54 vdd! vss haddx1_hvt
    xintadd_16_u2 intadd_12_sum_0_ intadd_14_sum_0_ intadd_16_n2 intadd_16_n1 intadd_1_b_3_ vdd! vss faddx1_hvt
    xintadd_14_u3 intadd_11_sum_0_ intadd_14_a_1_ intadd_14_n3 intadd_14_n2 intadd_14_sum_1_ vdd! vss faddx1_hvt
    xintadd_14_u4 intadd_14_b_0_ intadd_14_a_0_ intadd_14_ci intadd_14_n3 intadd_14_sum_0_ vdd! vss faddx1_hvt