*  Generated for: HSPICE
*  Generated on: Apr 30 21:54:05 2014
*  Design library name: phase2_0_78
*  Design cell name: neo_v2_tb
*  Design view name: schematic
.global vdd!
.temp 25.0
.option ARTIST=2 PSF=2 WARN_SEP=1
.option LIS_NEW=1 
.lib '/home/ff/ee241/synopsys-32nm/hspice/saed32nm.lib' TT
*  Library name: saed32nm_hvt
*  Cell name: NBUFFX2_HVT
*  View name: schematic
.subckt nbuffx2_hvt a vdd vss y
    xmp2 y an vdd vdd p105_hvt m=2 w=800e-9 l=30e-9 ad=10.5e-15 as=10.5e-15 pd=310e-9 ps=310e-9
    xmp1 an a vdd vdd p105_hvt m=1 w=520e-9 l=30e-9 ad=10.5e-15 as=10.5e-15 pd=310e-9 ps=310e-9
    xmn2 y an vss vss n105_hvt m=2 w=420e-9 l=30e-9 ad=10.5e-15 as=10.5e-15 pd=310e-9 ps=310e-9
    xmn1 an a vss vss n105_hvt m=1 w=270e-9 l=30e-9 ad=10.5e-15 as=10.5e-15 pd=310e-9 ps=310e-9
.ends 
*  End of subcircuit definition.
*  Library name: saed32nm_hvt
*  Cell name: AND2X1_HVT
*  View name: schematic
.subckt and2x1_hvt a1 a2 vdd vss y
    xmn1 y1 a1 sa1 vss n105_hvt m=1 w=420e-9 l=30e-9 ad=10.5e-15 as=10.5e-15 pd=310e-9 ps=310e-9
    xmn2 sa1 a2 vss vss n105_hvt m=1 w=420e-9 l=30e-9 ad=10.5e-15 as=10.5e-15 pd=310e-9 ps=310e-9
    xmn3 y y1 vss vss n105_hvt m=1 w=420e-9 l=30e-9 ad=10.5e-15 as=10.5e-15 pd=310e-9 ps=310e-9
    xmp2 y1 a2 vdd vdd p105_hvt m=1 w=390e-9 l=30e-9 ad=10.5e-15 as=10.5e-15 pd=310e-9 ps=310e-9
    xmp1 y1 a1 vdd vdd p105_hvt m=1 w=390e-9 l=30e-9 ad=10.5e-15 as=10.5e-15 pd=310e-9 ps=310e-9
    xmp3 y y1 vdd vdd p105_hvt m=1 w=800e-9 l=30e-9 ad=10.5e-15 as=10.5e-15 pd=310e-9 ps=310e-9
.ends 
*  End of subcircuit definition.
*  Library name: saed32nm_hvt
*  Cell name: NAND2X0_HVT
*  View name: schematic
.subckt nand2x0_hvt a1 a2 vdd vss y
    xmp2 y a2 vdd vdd p105_hvt m=1 w=300e-9 l=30e-9 ad=10.5e-15 as=10.5e-15 pd=310e-9 ps=310e-9
    xmp1 y a1 vdd vdd p105_hvt m=1 w=300e-9 l=30e-9 ad=10.5e-15 as=10.5e-15 pd=310e-9 ps=310e-9
    xmn1 y a1 sa1 vss n105_hvt m=1 w=320e-9 l=30e-9 ad=10.5e-15 as=10.5e-15 pd=310e-9 ps=310e-9
    xmn2 sa1 a2 vss vss n105_hvt m=1 w=320e-9 l=30e-9 ad=10.5e-15 as=10.5e-15 pd=310e-9 ps=310e-9
.ends 
*  End of subcircuit definition.
*  Library name: saed32nm_hvt
*  Cell name: HADDX1_HVT
*  View name: schematic
.subckt haddx1_hvt a0 b0 c1 so vdd vss
    xmn4 net292 b0 net287 vss n105_hvt m=1 w=420e-9 l=30e-9 ad=10.5e-15 as=10.5e-15 pd=310e-9 ps=310e-9
    xmn5 net287 a0 vss vss n105_hvt m=1 w=420e-9 l=30e-9 ad=10.5e-15 as=10.5e-15 pd=310e-9 ps=310e-9
    xmn7 c1 net292 vss vss n105_hvt m=1 w=420e-9 l=30e-9 ad=10.5e-15 as=10.5e-15 pd=310e-9 ps=310e-9
    xmn6 so net295 vss vss n105_hvt m=1 w=420e-9 l=30e-9 ad=10.5e-15 as=10.5e-15 pd=310e-9 ps=310e-9
    xmn3 net289 net292 vss vss n105_hvt m=1 w=420e-9 l=30e-9 ad=10.5e-15 as=10.5e-15 pd=310e-9 ps=310e-9
    xmn1 net295 a0 net289 vss n105_hvt m=1 w=420e-9 l=30e-9 ad=10.5e-15 as=10.5e-15 pd=310e-9 ps=310e-9
    xmn2 net295 b0 net289 vss n105_hvt m=1 w=420e-9 l=30e-9 ad=10.5e-15 as=10.5e-15 pd=310e-9 ps=310e-9
    xmp7 c1 net292 vdd vdd p105_hvt m=1 w=800e-9 l=30e-9 ad=10.5e-15 as=10.5e-15 pd=310e-9 ps=310e-9
    xmp6 so net295 vdd vdd p105_hvt m=1 w=800e-9 l=30e-9 ad=10.5e-15 as=10.5e-15 pd=310e-9 ps=310e-9
    xmp2 net295 b0 net288 vdd p105_hvt m=1 w=450e-9 l=30e-9 ad=10.5e-15 as=10.5e-15 pd=310e-9 ps=310e-9
    xmp1 net288 a0 vdd vdd p105_hvt m=1 w=450e-9 l=30e-9 ad=10.5e-15 as=10.5e-15 pd=310e-9 ps=310e-9
    xmp5 net292 b0 vdd vdd p105_hvt m=1 w=420e-9 l=30e-9 ad=10.5e-15 as=10.5e-15 pd=310e-9 ps=310e-9
    xmp4 net292 a0 vdd vdd p105_hvt m=1 w=420e-9 l=30e-9 ad=10.5e-15 as=10.5e-15 pd=310e-9 ps=310e-9
    xmp3 net295 net292 vdd vdd p105_hvt m=1 w=450e-9 l=30e-9 ad=10.5e-15 as=10.5e-15 pd=310e-9 ps=310e-9
.ends 
*  End of subcircuit definition.
*  Library name: saed32nm_hvt
*  Cell name: OR2X1_HVT
*  View name: schematic
.subckt or2x1_hvt a1 a2 vdd vss y
    xmn2 sa1 a2 vss vss n105_hvt m=1 w=210e-9 l=30e-9 ad=10.5e-15 as=10.5e-15 pd=310e-9 ps=310e-9
    xmn1 sa1 a1 vss vss n105_hvt m=1 w=210e-9 l=30e-9 ad=10.5e-15 as=10.5e-15 pd=310e-9 ps=310e-9
    xmn0 y sa1 vss vss n105_hvt m=1 w=420e-9 l=30e-9 ad=10.5e-15 as=10.5e-15 pd=310e-9 ps=310e-9
    xmp2 sa1 a2 net126 vdd p105_hvt m=1 w=800e-9 l=30e-9 ad=10.5e-15 as=10.5e-15 pd=310e-9 ps=310e-9
    xmp1 net126 a1 vdd vdd p105_hvt m=1 w=800e-9 l=30e-9 ad=10.5e-15 as=10.5e-15 pd=310e-9 ps=310e-9
    xmp0 y sa1 vdd vdd p105_hvt m=1 w=800e-9 l=30e-9 ad=10.5e-15 as=10.5e-15 pd=310e-9 ps=310e-9
.ends 
*  End of subcircuit definition.
*  Library name: saed32nm_hvt
*  Cell name: FADDX1_HVT
*  View name: schematic
.subckt faddx1_hvt a b ci co s vdd vss
    xmp10 net598 a vdd vdd p105_hvt m=1 w=620e-9 l=30e-9 ad=10.5e-15 as=10.5e-15 pd=310e-9 ps=310e-9
    xmp11 net600 b net598 vdd p105_hvt m=1 w=620e-9 l=30e-9 ad=10.5e-15 as=10.5e-15 pd=310e-9 ps=310e-9
    xmp12 net607 ci net600 vdd p105_hvt m=1 w=620e-9 l=30e-9 ad=10.5e-15 as=10.5e-15 pd=310e-9 ps=310e-9
    xmp13 s net607 vdd vdd p105_hvt m=1 w=800e-9 l=30e-9 ad=10.5e-15 as=10.5e-15 pd=310e-9 ps=310e-9
    xmp14 co net609 vdd vdd p105_hvt m=1 w=800e-9 l=30e-9 ad=10.5e-15 as=10.5e-15 pd=310e-9 ps=310e-9
    xmp5 net609 b net576 vdd p105_hvt m=1 w=620e-9 l=30e-9 ad=10.5e-15 as=10.5e-15 pd=310e-9 ps=310e-9
    xmp4 net576 a vdd vdd p105_hvt m=1 w=620e-9 l=30e-9 ad=10.5e-15 as=10.5e-15 pd=310e-9 ps=310e-9
    xmp9 net607 net609 net589 vdd p105_hvt m=1 w=620e-9 l=30e-9 ad=10.5e-15 as=10.5e-15 pd=310e-9 ps=310e-9
    xmp6 net589 ci vdd vdd p105_hvt m=1 w=620e-9 l=30e-9 ad=10.5e-15 as=10.5e-15 pd=310e-9 ps=310e-9
    xmp3 net609 ci net572 vdd p105_hvt m=1 w=620e-9 l=30e-9 ad=10.5e-15 as=10.5e-15 pd=310e-9 ps=310e-9
    xmp7 net589 a vdd vdd p105_hvt m=1 w=620e-9 l=30e-9 ad=10.5e-15 as=10.5e-15 pd=310e-9 ps=310e-9
    xmp8 net589 b vdd vdd p105_hvt m=1 w=620e-9 l=30e-9 ad=10.5e-15 as=10.5e-15 pd=310e-9 ps=310e-9
    xmp1 net572 a vdd vdd p105_hvt m=1 w=620e-9 l=30e-9 ad=10.5e-15 as=10.5e-15 pd=310e-9 ps=310e-9
    xmp2 net572 b vdd vdd p105_hvt m=1 w=620e-9 l=30e-9 ad=10.5e-15 as=10.5e-15 pd=310e-9 ps=310e-9
    xmn11 net604 b net605 vss n105_hvt m=1 w=280e-9 l=30e-9 ad=10.5e-15 as=10.5e-15 pd=310e-9 ps=310e-9
    xmn10 net607 ci net604 vss n105_hvt m=1 w=280e-9 l=30e-9 ad=10.5e-15 as=10.5e-15 pd=310e-9 ps=310e-9
    xmn12 net605 a vss vss n105_hvt m=1 w=280e-9 l=30e-9 ad=10.5e-15 as=10.5e-15 pd=310e-9 ps=310e-9
    xmn5 net579 a vss vss n105_hvt m=1 w=280e-9 l=30e-9 ad=10.5e-15 as=10.5e-15 pd=310e-9 ps=310e-9
    xmn4 net609 b net579 vss n105_hvt m=1 w=280e-9 l=30e-9 ad=10.5e-15 as=10.5e-15 pd=310e-9 ps=310e-9
    xmn13 s net607 vss vss n105_hvt m=1 w=420e-9 l=30e-9 ad=10.5e-15 as=10.5e-15 pd=310e-9 ps=310e-9
    xmn14 co net609 vss vss n105_hvt m=1 w=420e-9 l=30e-9 ad=10.5e-15 as=10.5e-15 pd=310e-9 ps=310e-9
    xmn6 net595 ci vss vss n105_hvt m=1 w=280e-9 l=30e-9 ad=10.5e-15 as=10.5e-15 pd=310e-9 ps=310e-9
    xmn7 net595 a vss vss n105_hvt m=1 w=280e-9 l=30e-9 ad=10.5e-15 as=10.5e-15 pd=310e-9 ps=310e-9
    xmn8 net595 b vss vss n105_hvt m=1 w=280e-9 l=30e-9 ad=10.5e-15 as=10.5e-15 pd=310e-9 ps=310e-9
    xmn9 net607 net609 net595 vss n105_hvt m=1 w=280e-9 l=30e-9 ad=10.5e-15 as=10.5e-15 pd=310e-9 ps=310e-9
    xmn3 net573 b vss vss n105_hvt m=1 w=280e-9 l=30e-9 ad=10.5e-15 as=10.5e-15 pd=310e-9 ps=310e-9
    xmn1 net573 a vss vss n105_hvt m=1 w=280e-9 l=30e-9 ad=10.5e-15 as=10.5e-15 pd=310e-9 ps=310e-9
    xmn2 net609 ci net573 vss n105_hvt m=1 w=280e-9 l=30e-9 ad=10.5e-15 as=10.5e-15 pd=310e-9 ps=310e-9
.ends 
*  End of subcircuit definition.
*  Library name: saed32nm_hvt
*  Cell name: NAND3X0_HVT
*  View name: schematic
.subckt nand3x0_hvt a1 a2 a3 vdd vss y
    xmn3 sa2 a3 vss vss n105_hvt m=1 w=400e-9 l=30e-9 ad=10.5e-15 as=10.5e-15 pd=310e-9 ps=310e-9
    xmn1 y a1 sa1 vss n105_hvt m=1 w=400e-9 l=30e-9 ad=10.5e-15 as=10.5e-15 pd=310e-9 ps=310e-9
    xmn2 sa1 a2 sa2 vss n105_hvt m=1 w=400e-9 l=30e-9 ad=10.5e-15 as=10.5e-15 pd=310e-9 ps=310e-9
    xmp3 y a3 vdd vdd p105_hvt m=1 w=420e-9 l=30e-9 ad=10.5e-15 as=10.5e-15 pd=310e-9 ps=310e-9
    xmp1 y a1 vdd vdd p105_hvt m=1 w=420e-9 l=30e-9 ad=10.5e-15 as=10.5e-15 pd=310e-9 ps=310e-9
    xmp2 y a2 vdd vdd p105_hvt m=1 w=420e-9 l=30e-9 ad=10.5e-15 as=10.5e-15 pd=310e-9 ps=310e-9
.ends 
*  End of subcircuit definition.
*  Library name: saed32nm_hvt
*  Cell name: INVX0_HVT
*  View name: schematic
.subckt invx0_hvt a vdd vss y
    xmp y a vdd vdd p105_hvt m=1 w=520e-9 l=30e-9 ad=10.5e-15 as=10.5e-15 pd=310e-9 ps=310e-9
    xmn y a vss vss n105_hvt m=1 w=270e-9 l=30e-9 ad=10.5e-15 as=10.5e-15 pd=310e-9 ps=310e-9
.ends 
*  End of subcircuit definition.
*  Library name: saed32nm_hvt
*  Cell name: DFFARX1_HVT
*  View name: schematic
.subckt dffarx1_hvt clk d q qn rstb vdd vss
    xmp01 d1 d vdd vdd p105_hvt m=1 w=450e-9 l=30e-9 ad=10.5e-15 as=10.5e-15 pd=310e-9 ps=310e-9
    xmp10 fb4 clkp vdd vdd p105_hvt m=1 w=300e-9 l=30e-9 ad=10.5e-15 as=10.5e-15 pd=310e-9 ps=310e-9
    xmp11 d4 d5 fb4 vdd p105_hvt m=1 w=300e-9 l=30e-9 ad=10.5e-15 as=10.5e-15 pd=310e-9 ps=310e-9
    xmp14 qn d4 vdd vdd p105_hvt m=1 w=800e-9 l=30e-9 ad=10.5e-15 as=10.5e-15 pd=310e-9 ps=310e-9
    xmp13 q d5 vdd vdd p105_hvt m=1 w=800e-9 l=30e-9 ad=10.5e-15 as=10.5e-15 pd=310e-9 ps=310e-9
    xmpc1 clkn clk vdd vdd p105_hvt m=1 w=740e-9 l=30e-9 ad=10.5e-15 as=10.5e-15 pd=310e-9 ps=310e-9
    xmp1 d1 clkp d2 vdd p105_hvt m=1 w=400e-9 l=30e-9 ad=10.5e-15 as=10.5e-15 pd=310e-9 ps=310e-9
    xmpc2 clkp clkn vdd vdd p105_hvt m=1 w=740e-9 l=30e-9 ad=10.5e-15 as=10.5e-15 pd=310e-9 ps=310e-9
    xmp2 d3 d2 vdd vdd p105_hvt m=1 w=700e-9 l=30e-9 ad=10.5e-15 as=10.5e-15 pd=310e-9 ps=310e-9
    xmp8 vdd d4 d5 vdd p105_hvt m=1 w=520e-9 l=30e-9 ad=10.5e-15 as=10.5e-15 pd=310e-9 ps=310e-9
    xmp9 d5 rstb vdd vdd p105_hvt m=1 w=520e-9 l=30e-9 ad=10.5e-15 as=10.5e-15 pd=310e-9 ps=310e-9
    xmp7 d4 clkn d3 vdd p105_hvt m=1 w=400e-9 l=30e-9 ad=10.5e-15 as=10.5e-15 pd=310e-9 ps=310e-9
    xmp6 d2 d3 fb1 vdd p105_hvt m=1 w=300e-9 l=30e-9 ad=10.5e-15 as=10.5e-15 pd=310e-9 ps=310e-9
    xmp5 d2 rstb fb1 vdd p105_hvt m=1 w=300e-9 l=30e-9 ad=10.5e-15 as=10.5e-15 pd=310e-9 ps=310e-9
    xmp4 fb1 clkn vdd vdd p105_hvt m=1 w=300e-9 l=30e-9 ad=10.5e-15 as=10.5e-15 pd=310e-9 ps=310e-9
    xmn4 fb3 clkp vss vss n105_hvt m=1 w=300e-9 l=30e-9 ad=10.5e-15 as=10.5e-15 pd=310e-9 ps=310e-9
    xmn5 fb2 rstb fb3 vss n105_hvt m=1 w=300e-9 l=30e-9 ad=10.5e-15 as=10.5e-15 pd=310e-9 ps=310e-9
    xmn6 d2 d3 fb2 vss n105_hvt m=1 w=300e-9 l=30e-9 ad=10.5e-15 as=10.5e-15 pd=310e-9 ps=310e-9
    xmn01 d1 d vss vss n105_hvt m=1 w=420e-9 l=30e-9 ad=10.5e-15 as=10.5e-15 pd=310e-9 ps=310e-9
    xmn9 d5 rstb net294 vss n105_hvt m=1 w=350e-9 l=30e-9 ad=10.5e-15 as=10.5e-15 pd=310e-9 ps=310e-9
    xmn8 net294 d4 vss vss n105_hvt m=1 w=350e-9 l=30e-9 ad=10.5e-15 as=10.5e-15 pd=310e-9 ps=310e-9
    xmn14 qn d4 vss vss n105_hvt m=1 w=420e-9 l=30e-9 ad=10.5e-15 as=10.5e-15 pd=310e-9 ps=310e-9
    xmn11 d4 d5 fb5 vss n105_hvt m=1 w=300e-9 l=30e-9 ad=10.5e-15 as=10.5e-15 pd=310e-9 ps=310e-9
    xmn10 fb5 clkn vss vss n105_hvt m=1 w=300e-9 l=30e-9 ad=10.5e-15 as=10.5e-15 pd=310e-9 ps=310e-9
    xmn13 q d5 vss vss n105_hvt m=1 w=420e-9 l=30e-9 ad=10.5e-15 as=10.5e-15 pd=310e-9 ps=310e-9
    xmnc1 clkn clk vss vss n105_hvt m=1 w=400e-9 l=30e-9 ad=10.5e-15 as=10.5e-15 pd=310e-9 ps=310e-9
    xmn1 d1 clkn d2 vss n105_hvt m=1 w=300e-9 l=30e-9 ad=10.5e-15 as=10.5e-15 pd=310e-9 ps=310e-9
    xmnc2 clkp clkn vss vss n105_hvt m=1 w=400e-9 l=30e-9 ad=10.5e-15 as=10.5e-15 pd=310e-9 ps=310e-9
    xmn2 d3 d2 vss vss n105_hvt m=1 w=350e-9 l=30e-9 ad=10.5e-15 as=10.5e-15 pd=310e-9 ps=310e-9
    xmn7 d4 clkp d3 vss n105_hvt m=1 w=300e-9 l=30e-9 ad=10.5e-15 as=10.5e-15 pd=310e-9 ps=310e-9
.ends 
*  End of subcircuit definition.
*  Library name: saed32nm_hvt
*  Cell name: OA21X1_HVT
*  View name: schematic
.subckt oa21x1_hvt a1 a2 a3 vdd vss y
    xmp2 net6 a2 net1 vdd p105_hvt m=1 w=550e-9 l=30e-9 ad=10.5e-15 as=10.5e-15 pd=310e-9 ps=310e-9
    xmp1 net1 a1 vdd vdd p105_hvt m=1 w=550e-9 l=30e-9 ad=10.5e-15 as=10.5e-15 pd=310e-9 ps=310e-9
    xmp3 net6 a3 vdd vdd p105_hvt m=1 w=250e-9 l=30e-9 ad=10.5e-15 as=10.5e-15 pd=310e-9 ps=310e-9
    xmp7 y net6 vdd vdd p105_hvt m=1 w=800e-9 l=30e-9 ad=10.5e-15 as=10.5e-15 pd=310e-9 ps=310e-9
    xmn2 net2 a2 vss vss n105_hvt m=1 w=350e-9 l=30e-9 ad=10.5e-15 as=10.5e-15 pd=310e-9 ps=310e-9
    xmn1 net2 a1 vss vss n105_hvt m=1 w=350e-9 l=30e-9 ad=10.5e-15 as=10.5e-15 pd=310e-9 ps=310e-9
    xmn3 net6 a3 net2 vss n105_hvt m=1 w=200e-9 l=30e-9 ad=10.5e-15 as=10.5e-15 pd=310e-9 ps=310e-9
    xmn7 y net6 vss vss n105_hvt m=1 w=420e-9 l=30e-9 ad=10.5e-15 as=10.5e-15 pd=310e-9 ps=310e-9
.ends 
*  End of subcircuit definition.
*  Library name: saed32nm_hvt
*  Cell name: NBUFFX8_HVT
*  View name: schematic
.subckt nbuffx8_hvt a vdd vss y
    xmp2 y an vdd vdd p105_hvt m=8 w=800e-9 l=30e-9 ad=10.5e-15 as=10.5e-15 pd=310e-9 ps=310e-9
    xmp1 an a vdd vdd p105_hvt m=2 w=800e-9 l=30e-9 ad=10.5e-15 as=10.5e-15 pd=310e-9 ps=310e-9
    xmn2 y an vss vss n105_hvt m=8 w=420e-9 l=30e-9 ad=10.5e-15 as=10.5e-15 pd=310e-9 ps=310e-9
    xmn1 an a vss vss n105_hvt m=2 w=420e-9 l=30e-9 ad=10.5e-15 as=10.5e-15 pd=310e-9 ps=310e-9
.ends 
*  End of subcircuit definition.
*  Library name: saed32nm_hvt
*  Cell name: OAI221X1_HVT
*  View name: schematic
.subckt oai221x1_hvt a1 a2 a3 a4 a5 vdd vss y
    xmn4 net4 a4 net2 vss n105_hvt m=1 w=350e-9 l=30e-9 ad=10.5e-15 as=10.5e-15 pd=310e-9 ps=310e-9
    xmn3 net4 a3 net2 vss n105_hvt m=1 w=350e-9 l=30e-9 ad=10.5e-15 as=10.5e-15 pd=310e-9 ps=310e-9
    xmn1 net2 a1 vss vss n105_hvt m=1 w=350e-9 l=30e-9 ad=10.5e-15 as=10.5e-15 pd=310e-9 ps=310e-9
    xmn2 net2 a2 vss vss n105_hvt m=1 w=350e-9 l=30e-9 ad=10.5e-15 as=10.5e-15 pd=310e-9 ps=310e-9
    xmn5 net6 a5 net4 vss n105_hvt m=1 w=350e-9 l=30e-9 ad=10.5e-15 as=10.5e-15 pd=310e-9 ps=310e-9
    xmn8 y net7 vss vss n105_hvt m=1 w=420e-9 l=30e-9 ad=10.5e-15 as=10.5e-15 pd=310e-9 ps=310e-9
    xmn7 net7 net6 vss vss n105_hvt m=1 w=350e-9 l=30e-9 ad=10.5e-15 as=10.5e-15 pd=310e-9 ps=310e-9
    xmp4 net6 a4 net3 vdd p105_hvt m=1 w=390e-9 l=30e-9 ad=10.5e-15 as=10.5e-15 pd=310e-9 ps=310e-9
    xmp3 net3 a3 vdd vdd p105_hvt m=1 w=390e-9 l=30e-9 ad=10.5e-15 as=10.5e-15 pd=310e-9 ps=310e-9
    xmp2 net6 a2 net1 vdd p105_hvt m=1 w=390e-9 l=30e-9 ad=10.5e-15 as=10.5e-15 pd=310e-9 ps=310e-9
    xmp1 net1 a1 vdd vdd p105_hvt m=1 w=390e-9 l=30e-9 ad=10.5e-15 as=10.5e-15 pd=310e-9 ps=310e-9
    xmp5 net6 a5 vdd vdd p105_hvt m=1 w=190e-9 l=30e-9 ad=10.5e-15 as=10.5e-15 pd=310e-9 ps=310e-9
    xmp8 y net7 vdd vdd p105_hvt m=1 w=800e-9 l=30e-9 ad=10.5e-15 as=10.5e-15 pd=310e-9 ps=310e-9
    xmp7 net7 net6 vdd vdd p105_hvt m=1 w=540e-9 l=30e-9 ad=10.5e-15 as=10.5e-15 pd=310e-9 ps=310e-9
.ends 
*  End of subcircuit definition.
*  Library name: saed32nm_hvt
*  Cell name: DELLN1X2_HVT
*  View name: schematic
.subckt delln1x2_hvt a vdd vss y
    xmn2 sa2 sa1 net382 vss n105_hvt m=1 w=170e-9 l=30e-9 ad=10.5e-15 as=10.5e-15 pd=310e-9 ps=310e-9
    xmn3 net382 vdd net384 vss n105_hvt m=1 w=170e-9 l=30e-9 ad=10.5e-15 as=10.5e-15 pd=310e-9 ps=310e-9
    xmn4 net384 vdd vss vss n105_hvt m=1 w=170e-9 l=30e-9 ad=10.5e-15 as=10.5e-15 pd=310e-9 ps=310e-9
    xmn6 sa4 sa3 net400 vss n105_hvt m=1 w=240e-9 l=30e-9 ad=10.5e-15 as=10.5e-15 pd=310e-9 ps=310e-9
    xmn7 net400 vdd net398 vss n105_hvt m=1 w=240e-9 l=30e-9 ad=10.5e-15 as=10.5e-15 pd=310e-9 ps=310e-9
    xmn8 net398 vdd vss vss n105_hvt m=1 w=240e-9 l=30e-9 ad=10.5e-15 as=10.5e-15 pd=310e-9 ps=310e-9
    xmn1 sa1 a vss vss n105_hvt m=1 w=120e-9 l=30e-9 ad=10.5e-15 as=10.5e-15 pd=310e-9 ps=310e-9
    xmn10 y sa5 vss vss n105_hvt m=2 w=420e-9 l=30e-9 ad=10.5e-15 as=10.5e-15 pd=310e-9 ps=310e-9
    xmn5 sa3 sa2 vss vss n105_hvt m=1 w=110e-9 l=30e-9 ad=10.5e-15 as=10.5e-15 pd=310e-9 ps=310e-9
    xmn9 sa5 sa4 vss vss n105_hvt m=1 w=270e-9 l=30e-9 ad=10.5e-15 as=10.5e-15 pd=310e-9 ps=310e-9
    xmp3 net377 vss net375 vdd p105_hvt m=1 w=320e-9 l=30e-9 ad=10.5e-15 as=10.5e-15 pd=310e-9 ps=310e-9
    xmp2 sa2 sa1 net377 vdd p105_hvt m=1 w=320e-9 l=30e-9 ad=10.5e-15 as=10.5e-15 pd=310e-9 ps=310e-9
    xmp4 net375 vss vdd vdd p105_hvt m=1 w=320e-9 l=30e-9 ad=10.5e-15 as=10.5e-15 pd=310e-9 ps=310e-9
    xmp8 net391 vss vdd vdd p105_hvt m=1 w=460e-9 l=30e-9 ad=10.5e-15 as=10.5e-15 pd=310e-9 ps=310e-9
    xmp7 net393 vss net391 vdd p105_hvt m=1 w=460e-9 l=30e-9 ad=10.5e-15 as=10.5e-15 pd=310e-9 ps=310e-9
    xmp6 sa4 sa3 net393 vdd p105_hvt m=1 w=460e-9 l=30e-9 ad=10.5e-15 as=10.5e-15 pd=310e-9 ps=310e-9
    xmp1 sa1 a vdd vdd p105_hvt m=1 w=230e-9 l=30e-9 ad=10.5e-15 as=10.5e-15 pd=310e-9 ps=310e-9
    xmp10 y sa5 vdd vdd p105_hvt m=2 w=800e-9 l=30e-9 ad=10.5e-15 as=10.5e-15 pd=310e-9 ps=310e-9
    xmp5 sa3 sa2 vdd vdd p105_hvt m=1 w=210e-9 l=30e-9 ad=10.5e-15 as=10.5e-15 pd=310e-9 ps=310e-9
    xmp9 sa5 sa4 vdd vdd p105_hvt m=1 w=520e-9 l=30e-9 ad=10.5e-15 as=10.5e-15 pd=310e-9 ps=310e-9
.ends 
*  End of subcircuit definition.
*  Library name: saed32nm_hvt
*  Cell name: INVX4_HVT
*  View name: schematic
.subckt invx4_hvt a vdd vss y
    xmp y a vdd vdd p105_hvt m=4 w=800e-9 l=30e-9 ad=10.5e-15 as=10.5e-15 pd=310e-9 ps=310e-9
    xmn y a vss vss n105_hvt m=4 w=420e-9 l=30e-9 ad=10.5e-15 as=10.5e-15 pd=310e-9 ps=310e-9
.ends 
*  End of subcircuit definition.
*  Library name: saed32nm_hvt
*  Cell name: AO221X1_HVT
*  View name: schematic
.subckt ao221x1_hvt a1 a2 a3 a4 a5 vdd vss y
    xmp2 net1 a1 vdd vdd p105_hvt m=1 w=580e-9 l=30e-9 ad=10.5e-15 as=10.5e-15 pd=310e-9 ps=310e-9
    xmp1 net1 a2 vdd vdd p105_hvt m=1 w=580e-9 l=30e-9 ad=10.5e-15 as=10.5e-15 pd=310e-9 ps=310e-9
    xmp4 net3 a3 net1 vdd p105_hvt m=1 w=580e-9 l=30e-9 ad=10.5e-15 as=10.5e-15 pd=310e-9 ps=310e-9
    xmp3 net3 a4 net1 vdd p105_hvt m=1 w=580e-9 l=30e-9 ad=10.5e-15 as=10.5e-15 pd=310e-9 ps=310e-9
    xmp5 net5 a5 net3 vdd p105_hvt m=1 w=580e-9 l=30e-9 ad=10.5e-15 as=10.5e-15 pd=310e-9 ps=310e-9
    xmp6 y net5 vdd vdd p105_hvt m=1 w=800e-9 l=30e-9 ad=10.5e-15 as=10.5e-15 pd=310e-9 ps=310e-9
    xmn2 net5 a1 net2 vss n105_hvt m=1 w=250e-9 l=30e-9 ad=10.5e-15 as=10.5e-15 pd=310e-9 ps=310e-9
    xmn1 net2 a2 vss vss n105_hvt m=1 w=250e-9 l=30e-9 ad=10.5e-15 as=10.5e-15 pd=310e-9 ps=310e-9
    xmn4 net5 a3 net4 vss n105_hvt m=1 w=250e-9 l=30e-9 ad=10.5e-15 as=10.5e-15 pd=310e-9 ps=310e-9
    xmn3 net4 a4 vss vss n105_hvt m=1 w=250e-9 l=30e-9 ad=10.5e-15 as=10.5e-15 pd=310e-9 ps=310e-9
    xmn5 net5 a5 vss vss n105_hvt m=1 w=120e-9 l=30e-9 ad=10.5e-15 as=10.5e-15 pd=310e-9 ps=310e-9
    xmn6 y net5 vss vss n105_hvt m=1 w=420e-9 l=30e-9 ad=10.5e-15 as=10.5e-15 pd=310e-9 ps=310e-9
.ends 
*  End of subcircuit definition.
*  Library name: saed32nm_hvt
*  Cell name: XOR2X1_HVT
*  View name: schematic
.subckt xor2x1_hvt a1 a2 vdd vss y
    xmn7 y y1 vss vss n105_hvt m=1 w=420e-9 l=30e-9 ad=10.5e-15 as=10.5e-15 pd=310e-9 ps=310e-9
    xmn4 sa2 a2b vss vss n105_hvt m=1 w=230e-9 l=30e-9 ad=10.5e-15 as=10.5e-15 pd=310e-9 ps=310e-9
    xmn3 y1 a1 sa2 vss n105_hvt m=1 w=230e-9 l=30e-9 ad=10.5e-15 as=10.5e-15 pd=310e-9 ps=310e-9
    xmn5 y1 a1b sa4 vss n105_hvt m=1 w=270e-9 l=30e-9 ad=10.5e-15 as=10.5e-15 pd=310e-9 ps=310e-9
    xmn6 sa4 a2 vss vss n105_hvt m=1 w=270e-9 l=30e-9 ad=10.5e-15 as=10.5e-15 pd=310e-9 ps=310e-9
    xmn2 a2b a2 vss vss n105_hvt m=1 w=210e-9 l=30e-9 ad=10.5e-15 as=10.5e-15 pd=310e-9 ps=310e-9
    xmn1 a1b a1 vss vss n105_hvt m=1 w=200e-9 l=30e-9 ad=10.5e-15 as=10.5e-15 pd=310e-9 ps=310e-9
    xmp6 y1 a1b sa3 vdd p105_hvt m=1 w=400e-9 l=30e-9 ad=10.5e-15 as=10.5e-15 pd=310e-9 ps=310e-9
    xmp5 sa3 a2b vdd vdd p105_hvt m=1 w=400e-9 l=30e-9 ad=10.5e-15 as=10.5e-15 pd=310e-9 ps=310e-9
    xmp7 y y1 vdd vdd p105_hvt m=1 w=750e-9 l=30e-9 ad=10.5e-15 as=10.5e-15 pd=310e-9 ps=310e-9
    xmp4 y1 a1 sa1 vdd p105_hvt m=1 w=330e-9 l=30e-9 ad=10.5e-15 as=10.5e-15 pd=310e-9 ps=310e-9
    xmp3 sa1 a2 vdd vdd p105_hvt m=1 w=330e-9 l=30e-9 ad=10.5e-15 as=10.5e-15 pd=310e-9 ps=310e-9
    xmp2 a2b a2 vdd vdd p105_hvt m=1 w=330e-9 l=30e-9 ad=10.5e-15 as=10.5e-15 pd=310e-9 ps=310e-9
    xmp1 a1b a1 vdd vdd p105_hvt m=1 w=360e-9 l=30e-9 ad=10.5e-15 as=10.5e-15 pd=310e-9 ps=310e-9
.ends 
*  End of subcircuit definition.
*  Library name: saed32nm_hvt
*  Cell name: OAI21X1_HVT
*  View name: schematic
.subckt oai21x1_hvt a1 a2 a3 vdd vss y
    xmn2 net2 a2 vss vss n105_hvt m=1 w=360e-9 l=30e-9 ad=10.5e-15 as=10.5e-15 pd=310e-9 ps=310e-9
    xmn1 net2 a1 vss vss n105_hvt m=1 w=360e-9 l=30e-9 ad=10.5e-15 as=10.5e-15 pd=310e-9 ps=310e-9
    xmn3 net6 a3 net2 vss n105_hvt m=1 w=200e-9 l=30e-9 ad=10.5e-15 as=10.5e-15 pd=310e-9 ps=310e-9
    xmn8 y net7 vss vss n105_hvt m=1 w=420e-9 l=30e-9 ad=10.5e-15 as=10.5e-15 pd=310e-9 ps=310e-9
    xmn7 net7 net6 vss vss n105_hvt m=1 w=100e-9 l=30e-9 ad=10.5e-15 as=10.5e-15 pd=310e-9 ps=310e-9
    xmp2 net6 a2 net1 vdd p105_hvt m=1 w=460e-9 l=30e-9 ad=10.5e-15 as=10.5e-15 pd=310e-9 ps=310e-9
    xmp1 net1 a1 vdd vdd p105_hvt m=1 w=460e-9 l=30e-9 ad=10.5e-15 as=10.5e-15 pd=310e-9 ps=310e-9
    xmp3 net6 a3 vdd vdd p105_hvt m=1 w=260e-9 l=30e-9 ad=10.5e-15 as=10.5e-15 pd=310e-9 ps=310e-9
    xmp8 y net7 vdd vdd p105_hvt m=1 w=800e-9 l=30e-9 ad=10.5e-15 as=10.5e-15 pd=310e-9 ps=310e-9
    xmp7 net7 net6 vdd vdd p105_hvt m=1 w=170e-9 l=30e-9 ad=10.5e-15 as=10.5e-15 pd=310e-9 ps=310e-9
.ends 
*  End of subcircuit definition.
*  Library name: phase2_0_78
*  Cell name: neo_v2
*  View name: schematic
.subckt neo_v2_schematic xn<9> xn<8> xn<7> xn<6> xn<5> xn<4> xn<3> xn<2> xn<1> xn<0> xn_1<9> xn_1<8> xn_1<7> xn_1<6> xn_1<5> xn_1<4> xn_1<3> xn_1<2> xn_1<1> xn_1<0> xn_2<9> xn_2<8> xn_2<7> xn_2<6> xn_2<5> xn_2<4> xn_2<3> xn_2<2> xn_2<1> xn_2<0> clk reset neo_out<18> neo_out<17> neo_out<16> neo_out<15> neo_out<14> neo_out<13> neo_out<12> neo_out<11> neo_out<10> neo_out<9> neo_out<8> neo_out<7> neo_out<6> neo_out<5> neo_out<4> neo_out<3> neo_out<2> neo_out<1> neo_out<0> vdd! vss
    xicc_place55 xn<5> vdd! vss n210 nbuffx2_hvt
    xicc_place49 xn_1<9> vdd! vss n204 nbuffx2_hvt
    xicc_place59 xn<9> vdd! vss n214 nbuffx2_hvt
    xicc_place32 xn_2<9> vdd! vss n187 nbuffx2_hvt
    xicc_place42 xn_1<5> vdd! vss n197 nbuffx2_hvt
    xicc_place46 xn_1<7> vdd! vss n201 nbuffx2_hvt
    xicc_place44 xn_1<6> vdd! vss n199 nbuffx2_hvt
    xicc_place33 xn_1<0> vdd! vss n188 nbuffx2_hvt
    xicc_place37 xn_1<2> vdd! vss n192 nbuffx2_hvt
    xicc_place35 xn_1<1> vdd! vss n190 nbuffx2_hvt
    xicc_place53 xn<3> vdd! vss n208 nbuffx2_hvt
    xicc_place57 xn<7> vdd! vss n212 nbuffx2_hvt
    xicc_place56 xn<6> vdd! vss n211 nbuffx2_hvt
    xicc_place58 xn<8> vdd! vss n213 nbuffx2_hvt
    xicc_place54 xn<4> vdd! vss n209 nbuffx2_hvt
    xicc_place52 xn<2> vdd! vss n207 nbuffx2_hvt
    xicc_place51 xn<1> vdd! vss n206 nbuffx2_hvt
    xicc_place50 xn<0> vdd! vss n205 nbuffx2_hvt
    xicc_place41 xn_1<4> vdd! vss n196 nbuffx2_hvt
    xicc_place39 xn_1<3> vdd! vss n194 nbuffx2_hvt
    xicc_place25 xn_2<2> vdd! vss n180 nbuffx2_hvt
    xicc_place24 xn_2<1> vdd! vss n179 nbuffx2_hvt
    xicc_place23 xn_2<0> vdd! vss n178 nbuffx2_hvt
    xicc_place26 xn_2<3> vdd! vss n181 nbuffx2_hvt
    xicc_place27 xn_2<4> vdd! vss n182 nbuffx2_hvt
    xicc_place28 xn_2<5> vdd! vss n183 nbuffx2_hvt
    xicc_place29 xn_2<6> vdd! vss n184 nbuffx2_hvt
    xicc_place31 xn_2<8> vdd! vss n186 nbuffx2_hvt
    xicc_place30 xn_2<7> vdd! vss n185 nbuffx2_hvt
    xu278 n178 n206 vdd! vss intadd_1_b_0_ and2x1_hvt
    xu277 n178 n207 vdd! vss intadd_16_ci and2x1_hvt
    xu274 n206 n179 vdd! vss intadd_16_a_0_ and2x1_hvt
    xu268 n178 n208 vdd! vss n140 and2x1_hvt
    xu272 n207 n179 vdd! vss intadd_15_ci and2x1_hvt
    xu270 n180 n206 vdd! vss intadd_15_a_0_ and2x1_hvt
    xu267 n180 n207 vdd! vss intadd_15_a_1_ and2x1_hvt
    xu247 n178 n210 vdd! vss n134 and2x1_hvt
    xu248 n180 n208 vdd! vss n133 and2x1_hvt
    xu263 n206 n181 vdd! vss intadd_14_b_0_ and2x1_hvt
    xu264 n188 n194 vdd! vss n138 and2x1_hvt
    xu271 n205 n180 vdd! vss intadd_15_b_0_ and2x1_hvt
    xu107 n184 n213 vdd! vss n53 and2x1_hvt
    xu103 n212 n185 vdd! vss intadd_20_b_1_ and2x1_hvt
    xu102 n211 n186 vdd! vss intadd_20_a_1_ and2x1_hvt
    xu114 n183 n213 vdd! vss n55 and2x1_hvt
    xu113 n210 n186 vdd! vss n56 and2x1_hvt
    xu99 n204 n194 vdd! vss intadd_20_a_0_ and2x1_hvt
    xu158 n209 n184 vdd! vss n85 and2x1_hvt
    xu159 n180 n213 vdd! vss n84 and2x1_hvt
    xu179 n179 n213 vdd! vss n95 and2x1_hvt
    xu180 n207 n185 vdd! vss n94 and2x1_hvt
    xu146 n209 n185 vdd! vss n69 and2x1_hvt
    xu147 n182 n212 vdd! vss n68 and2x1_hvt
    xu148 n211 n183 vdd! vss n67 and2x1_hvt
    xu218 n179 n211 vdd! vss n116 and2x1_hvt
    xu219 n206 n184 vdd! vss n115 and2x1_hvt
    xu221 n207 n183 vdd! vss intadd_9_a_0_ and2x1_hvt
    xu224 n178 n212 vdd! vss intadd_9_ci and2x1_hvt
    xu236 n206 n183 vdd! vss n132 and2x1_hvt
    xu237 n178 n211 vdd! vss n131 and2x1_hvt
    xu238 n208 n181 vdd! vss n130 and2x1_hvt
    xu76 n204 n197 vdd! vss n30 and2x1_hvt
    xu80 n213 n185 vdd! vss n43 and2x1_hvt
    xu171 n190 n201 vdd! vss n81 and2x1_hvt
    xu172 n214 n178 vdd! vss n80 and2x1_hvt
    xu173 n187 n205 vdd! vss n79 and2x1_hvt
    xu109 n214 n182 vdd! vss n48 and2x1_hvt
    xu110 n187 n209 vdd! vss n47 and2x1_hvt
    xu129 n209 n186 vdd! vss n60 and2x1_hvt
    xu130 n182 n213 vdd! vss n59 and2x1_hvt
    xu118 n187 n208 vdd! vss intadd_5_b_0_ and2x1_hvt
    xu117 n196 n201 vdd! vss intadd_5_a_0_ and2x1_hvt
    xu119 xn_1<8> n194 vdd! vss intadd_5_ci and2x1_hvt
    xu140 xn_1<8> n190 vdd! vss intadd_10_a_0_ and2x1_hvt
    xu141 n194 n199 vdd! vss intadd_10_b_0_ and2x1_hvt
    xu142 n192 n201 vdd! vss intadd_10_ci and2x1_hvt
    xu196 n192 n196 vdd! vss intadd_4_ci and2x1_hvt
    xu194 n190 n197 vdd! vss intadd_4_a_0_ and2x1_hvt
    xu195 n188 n199 vdd! vss intadd_4_b_0_ and2x1_hvt
    xu199 n179 n212 vdd! vss n103 and2x1_hvt
    xu210 n208 n183 vdd! vss n106 and2x1_hvt
    xu211 n209 n182 vdd! vss n105 and2x1_hvt
    xu187 n209 n183 vdd! vss intadd_18_a_0_ and2x1_hvt
    xu188 n182 n210 vdd! vss intadd_18_b_0_ and2x1_hvt
    xu166 n181 n212 vdd! vss intadd_19_ci and2x1_hvt
    xu165 n210 n183 vdd! vss intadd_19_b_0_ and2x1_hvt
    xu205 n207 n184 vdd! vss intadd_17_a_0_ and2x1_hvt
    xu206 n178 n213 vdd! vss intadd_17_b_0_ and2x1_hvt
    xu207 n181 n210 vdd! vss intadd_17_ci and2x1_hvt
    xu155 n194 n197 vdd! vss intadd_2_ci and2x1_hvt
    xu153 n192 n199 vdd! vss intadd_2_a_0_ and2x1_hvt
    xu154 xn_1<8> n188 vdd! vss intadd_2_b_0_ and2x1_hvt
    xu135 n194 n201 vdd! vss intadd_6_a_0_ and2x1_hvt
    xu136 n187 n207 vdd! vss intadd_6_b_0_ and2x1_hvt
    xu137 n214 n180 vdd! vss intadd_6_ci and2x1_hvt
    xu151 n214 n179 vdd! vss n75 and2x1_hvt
    xu152 n187 n206 vdd! vss n74 and2x1_hvt
    xu183 n208 n184 vdd! vss n92 and2x1_hvt
    xu185 n181 n211 vdd! vss n91 and2x1_hvt
    xu125 n211 n184 vdd! vss intadd_13_b_1_ and2x1_hvt
    xu122 n204 n190 vdd! vss intadd_13_a_0_ and2x1_hvt
    xu144 n208 n186 vdd! vss n64 and2x1_hvt
    xu176 n190 n199 vdd! vss intadd_3_b_0_ and2x1_hvt
    xu177 n192 n197 vdd! vss intadd_3_ci and2x1_hvt
    xu192 n194 n196 vdd! vss n97 and2x1_hvt
    xu193 n188 n201 vdd! vss n96 and2x1_hvt
    xu227 n208 n182 vdd! vss n126 and2x1_hvt
    xu228 n181 n209 vdd! vss n125 and2x1_hvt
    xu229 n180 n209 vdd! vss n128 and2x1_hvt
    xu253 n206 n182 vdd! vss intadd_11_b_0_ and2x1_hvt
    xu252 n179 n209 vdd! vss intadd_11_a_0_ and2x1_hvt
    xu258 n178 n209 vdd! vss intadd_12_b_0_ and2x1_hvt
    xu257 n207 n181 vdd! vss intadd_12_a_1_ and2x1_hvt
    xu231 n179 n210 vdd! vss intadd_8_a_0_ and2x1_hvt
    xu233 n188 n197 vdd! vss n108 and2x1_hvt
    xu243 n190 n194 vdd! vss intadd_0_b_0_ and2x1_hvt
    xu244 n188 n196 vdd! vss intadd_0_ci and2x1_hvt
    xu88 n187 n210 vdd! vss intadd_7_b_0_ and2x1_hvt
    xu87 xn_1<8> n197 vdd! vss intadd_7_a_0_ and2x1_hvt
    xu89 n214 n183 vdd! vss intadd_7_ci and2x1_hvt
    xu90 n213 n186 vdd! vss n37 and2x1_hvt
    xu93 n204 n201 vdd! vss n150 and2x1_hvt
    xu214 n180 n210 vdd! vss n110 and2x1_hvt
    xu259 n179 n208 vdd! vss intadd_12_ci and2x1_hvt
    xu145 n207 n186 vdd! vss n76 and2x1_hvt
    xu184 n205 n186 vdd! vss n98 and2x1_hvt
    xu232 n205 n183 vdd! vss intadd_0_a_0_ and2x1_hvt
    xu281 n189 n190 vdd! vss n142 nand2x0_hvt
    xu269 n188 n192 vdd! vss n139 nand2x0_hvt
    xu297 n204 n203 vdd! vss n152 nand2x0_hvt
    xu295 n214 n187 vdd! vss n153 nand2x0_hvt
    xu265 n191 n192 vdd! vss n137 nand2x0_hvt
    xu275 n205 n179 vdd! vss intadd_1_a_0_ nand2x0_hvt
    xu261 n205 n181 vdd! vss n141 nand2x0_hvt
    xu234 n193 n194 vdd! vss n107 nand2x0_hvt
    xu100 n197 n201 vdd! vss intadd_20_b_0_ nand2x0_hvt
    xu101 xn_1<8> n196 vdd! vss intadd_20_ci nand2x0_hvt
    xu77 n187 n211 vdd! vss n29 nand2x0_hvt
    xu78 xn_1<8> n199 vdd! vss n28 nand2x0_hvt
    xu79 n214 n184 vdd! vss n44 nand2x0_hvt
    xu83 n22 n201 vdd! vss n42 nand2x0_hvt
    xu127 n198 n199 vdd! vss n51 nand2x0_hvt
    xu116 n212 n184 vdd! vss intadd_5_b_1_ nand2x0_hvt
    xu115 n211 n185 vdd! vss intadd_5_a_1_ nand2x0_hvt
    xu143 n181 n213 vdd! vss intadd_10_b_1_ nand2x0_hvt
    xu197 n180 n211 vdd! vss intadd_4_a_1_ nand2x0_hvt
    xu198 n206 n185 vdd! vss intadd_4_b_1_ nand2x0_hvt
    xu134 n183 n212 vdd! vss intadd_6_b_1_ nand2x0_hvt
    xu133 n210 n185 vdd! vss intadd_6_a_1_ nand2x0_hvt
    xu156 n208 n185 vdd! vss intadd_2_a_1_ nand2x0_hvt
    xu170 n182 n211 vdd! vss n90 nand2x0_hvt
    xu150 n210 n184 vdd! vss n73 nand2x0_hvt
    xu178 n180 n212 vdd! vss intadd_3_b_1_ nand2x0_hvt
    xu121 n214 n181 vdd! vss intadd_13_a_1_ nand2x0_hvt
    xu123 xn_1<8> n192 vdd! vss intadd_13_b_0_ nand2x0_hvt
    xu124 n196 n199 vdd! vss intadd_13_ci nand2x0_hvt
    xu230 n190 n196 vdd! vss n127 nand2x0_hvt
    xu242 n207 n182 vdd! vss intadd_0_a_1_ nand2x0_hvt
    xu86 n212 n186 vdd! vss intadd_7_b_1_ nand2x0_hvt
    xu92 n187 n212 vdd! vss n35 nand2x0_hvt
    xu91 n214 n185 vdd! vss n36 nand2x0_hvt
    xu97 n34 xn_1<8> vdd! vss n146 nand2x0_hvt
    xu73 n202 xn_1<8> vdd! vss n21 nand2x0_hvt
    xu94 n187 n213 vdd! vss n149 nand2x0_hvt